* NGSPICE file created from matrix_multiply.ext - technology: gf180mcuC

* Black-box entry subcircuit for gf180mcu_fd_sc_mcu7t5v0__fill_2 abstract view
.subckt gf180mcu_fd_sc_mcu7t5v0__fill_2 VDD VSS
.ends

* Black-box entry subcircuit for gf180mcu_fd_sc_mcu7t5v0__fillcap_4 abstract view
.subckt gf180mcu_fd_sc_mcu7t5v0__fillcap_4 VDD VSS
.ends

* Black-box entry subcircuit for gf180mcu_fd_sc_mcu7t5v0__antenna abstract view
.subckt gf180mcu_fd_sc_mcu7t5v0__antenna I VDD VSS
.ends

* Black-box entry subcircuit for gf180mcu_fd_sc_mcu7t5v0__fill_1 abstract view
.subckt gf180mcu_fd_sc_mcu7t5v0__fill_1 VDD VSS
.ends

* Black-box entry subcircuit for gf180mcu_fd_sc_mcu7t5v0__fillcap_64 abstract view
.subckt gf180mcu_fd_sc_mcu7t5v0__fillcap_64 VDD VSS
.ends

* Black-box entry subcircuit for gf180mcu_fd_sc_mcu7t5v0__fillcap_8 abstract view
.subckt gf180mcu_fd_sc_mcu7t5v0__fillcap_8 VDD VSS
.ends

* Black-box entry subcircuit for gf180mcu_fd_sc_mcu7t5v0__fillcap_16 abstract view
.subckt gf180mcu_fd_sc_mcu7t5v0__fillcap_16 VDD VSS
.ends

* Black-box entry subcircuit for gf180mcu_fd_sc_mcu7t5v0__dffrnq_1 abstract view
.subckt gf180mcu_fd_sc_mcu7t5v0__dffrnq_1 D RN CLK Q VDD VSS
.ends

* Black-box entry subcircuit for gf180mcu_fd_sc_mcu7t5v0__mux2_2 abstract view
.subckt gf180mcu_fd_sc_mcu7t5v0__mux2_2 I0 I1 S Z VDD VSS
.ends

* Black-box entry subcircuit for gf180mcu_fd_sc_mcu7t5v0__nor3_2 abstract view
.subckt gf180mcu_fd_sc_mcu7t5v0__nor3_2 A1 A2 A3 ZN VDD VSS
.ends

* Black-box entry subcircuit for gf180mcu_fd_sc_mcu7t5v0__xor2_1 abstract view
.subckt gf180mcu_fd_sc_mcu7t5v0__xor2_1 A1 A2 Z VDD VSS
.ends

* Black-box entry subcircuit for gf180mcu_fd_sc_mcu7t5v0__nor2_1 abstract view
.subckt gf180mcu_fd_sc_mcu7t5v0__nor2_1 A1 A2 ZN VDD VSS
.ends

* Black-box entry subcircuit for gf180mcu_fd_sc_mcu7t5v0__nand2_1 abstract view
.subckt gf180mcu_fd_sc_mcu7t5v0__nand2_1 A1 A2 ZN VDD VSS
.ends

* Black-box entry subcircuit for gf180mcu_fd_sc_mcu7t5v0__aoi22_1 abstract view
.subckt gf180mcu_fd_sc_mcu7t5v0__aoi22_1 A1 A2 B1 B2 ZN VDD VSS
.ends

* Black-box entry subcircuit for gf180mcu_fd_sc_mcu7t5v0__filltie abstract view
.subckt gf180mcu_fd_sc_mcu7t5v0__filltie VDD VSS
.ends

* Black-box entry subcircuit for gf180mcu_fd_sc_mcu7t5v0__fillcap_32 abstract view
.subckt gf180mcu_fd_sc_mcu7t5v0__fillcap_32 VDD VSS
.ends

* Black-box entry subcircuit for gf180mcu_fd_sc_mcu7t5v0__oai21_1 abstract view
.subckt gf180mcu_fd_sc_mcu7t5v0__oai21_1 A1 A2 B ZN VDD VSS
.ends

* Black-box entry subcircuit for gf180mcu_fd_sc_mcu7t5v0__xnor2_1 abstract view
.subckt gf180mcu_fd_sc_mcu7t5v0__xnor2_1 A1 A2 ZN VDD VSS
.ends

* Black-box entry subcircuit for gf180mcu_fd_sc_mcu7t5v0__aoi21_1 abstract view
.subckt gf180mcu_fd_sc_mcu7t5v0__aoi21_1 A1 A2 B ZN VDD VSS
.ends

* Black-box entry subcircuit for gf180mcu_fd_sc_mcu7t5v0__clkbuf_1 abstract view
.subckt gf180mcu_fd_sc_mcu7t5v0__clkbuf_1 I Z VDD VSS
.ends

* Black-box entry subcircuit for gf180mcu_fd_sc_mcu7t5v0__oai22_1 abstract view
.subckt gf180mcu_fd_sc_mcu7t5v0__oai22_1 A1 A2 B1 B2 ZN VDD VSS
.ends

* Black-box entry subcircuit for gf180mcu_fd_sc_mcu7t5v0__oai211_1 abstract view
.subckt gf180mcu_fd_sc_mcu7t5v0__oai211_1 A1 A2 B C ZN VDD VSS
.ends

* Black-box entry subcircuit for gf180mcu_fd_sc_mcu7t5v0__and4_1 abstract view
.subckt gf180mcu_fd_sc_mcu7t5v0__and4_1 A1 A2 A3 A4 Z VDD VSS
.ends

* Black-box entry subcircuit for gf180mcu_fd_sc_mcu7t5v0__buf_1 abstract view
.subckt gf180mcu_fd_sc_mcu7t5v0__buf_1 I Z VDD VSS
.ends

* Black-box entry subcircuit for gf180mcu_fd_sc_mcu7t5v0__and2_1 abstract view
.subckt gf180mcu_fd_sc_mcu7t5v0__and2_1 A1 A2 Z VDD VSS
.ends

* Black-box entry subcircuit for gf180mcu_fd_sc_mcu7t5v0__xnor3_1 abstract view
.subckt gf180mcu_fd_sc_mcu7t5v0__xnor3_1 A1 A2 A3 ZN VDD VSS
.ends

* Black-box entry subcircuit for gf180mcu_fd_sc_mcu7t5v0__aoi221_1 abstract view
.subckt gf180mcu_fd_sc_mcu7t5v0__aoi221_1 A1 A2 B1 B2 C ZN VDD VSS
.ends

* Black-box entry subcircuit for gf180mcu_fd_sc_mcu7t5v0__oai22_2 abstract view
.subckt gf180mcu_fd_sc_mcu7t5v0__oai22_2 A1 A2 B1 B2 ZN VDD VSS
.ends

* Black-box entry subcircuit for gf180mcu_fd_sc_mcu7t5v0__clkinv_1 abstract view
.subckt gf180mcu_fd_sc_mcu7t5v0__clkinv_1 I ZN VDD VSS
.ends

* Black-box entry subcircuit for gf180mcu_fd_sc_mcu7t5v0__clkbuf_4 abstract view
.subckt gf180mcu_fd_sc_mcu7t5v0__clkbuf_4 I Z VDD VSS
.ends

* Black-box entry subcircuit for gf180mcu_fd_sc_mcu7t5v0__endcap abstract view
.subckt gf180mcu_fd_sc_mcu7t5v0__endcap VDD VSS
.ends

* Black-box entry subcircuit for gf180mcu_fd_sc_mcu7t5v0__xor3_1 abstract view
.subckt gf180mcu_fd_sc_mcu7t5v0__xor3_1 A1 A2 A3 Z VDD VSS
.ends

* Black-box entry subcircuit for gf180mcu_fd_sc_mcu7t5v0__oai31_1 abstract view
.subckt gf180mcu_fd_sc_mcu7t5v0__oai31_1 A1 A2 A3 B ZN VDD VSS
.ends

* Black-box entry subcircuit for gf180mcu_fd_sc_mcu7t5v0__or3_1 abstract view
.subckt gf180mcu_fd_sc_mcu7t5v0__or3_1 A1 A2 A3 Z VDD VSS
.ends

* Black-box entry subcircuit for gf180mcu_fd_sc_mcu7t5v0__nand3_1 abstract view
.subckt gf180mcu_fd_sc_mcu7t5v0__nand3_1 A1 A2 A3 ZN VDD VSS
.ends

* Black-box entry subcircuit for gf180mcu_fd_sc_mcu7t5v0__or2_1 abstract view
.subckt gf180mcu_fd_sc_mcu7t5v0__or2_1 A1 A2 Z VDD VSS
.ends

* Black-box entry subcircuit for gf180mcu_fd_sc_mcu7t5v0__nand4_2 abstract view
.subckt gf180mcu_fd_sc_mcu7t5v0__nand4_2 A1 A2 A3 A4 ZN VDD VSS
.ends

* Black-box entry subcircuit for gf180mcu_fd_sc_mcu7t5v0__nand4_4 abstract view
.subckt gf180mcu_fd_sc_mcu7t5v0__nand4_4 A1 A2 A3 A4 ZN VDD VSS
.ends

* Black-box entry subcircuit for gf180mcu_fd_sc_mcu7t5v0__and3_1 abstract view
.subckt gf180mcu_fd_sc_mcu7t5v0__and3_1 A1 A2 A3 Z VDD VSS
.ends

* Black-box entry subcircuit for gf180mcu_fd_sc_mcu7t5v0__oai32_1 abstract view
.subckt gf180mcu_fd_sc_mcu7t5v0__oai32_1 A1 A2 A3 B1 B2 ZN VDD VSS
.ends

* Black-box entry subcircuit for gf180mcu_fd_sc_mcu7t5v0__clkbuf_2 abstract view
.subckt gf180mcu_fd_sc_mcu7t5v0__clkbuf_2 I Z VDD VSS
.ends

* Black-box entry subcircuit for gf180mcu_fd_sc_mcu7t5v0__nor3_1 abstract view
.subckt gf180mcu_fd_sc_mcu7t5v0__nor3_1 A1 A2 A3 ZN VDD VSS
.ends

* Black-box entry subcircuit for gf180mcu_fd_sc_mcu7t5v0__buf_2 abstract view
.subckt gf180mcu_fd_sc_mcu7t5v0__buf_2 I Z VDD VSS
.ends

* Black-box entry subcircuit for gf180mcu_fd_sc_mcu7t5v0__aoi221_2 abstract view
.subckt gf180mcu_fd_sc_mcu7t5v0__aoi221_2 A1 A2 B1 B2 C ZN VDD VSS
.ends

* Black-box entry subcircuit for gf180mcu_fd_sc_mcu7t5v0__aoi211_1 abstract view
.subckt gf180mcu_fd_sc_mcu7t5v0__aoi211_1 A1 A2 B C ZN VDD VSS
.ends

* Black-box entry subcircuit for gf180mcu_fd_sc_mcu7t5v0__nand3_2 abstract view
.subckt gf180mcu_fd_sc_mcu7t5v0__nand3_2 A1 A2 A3 ZN VDD VSS
.ends

* Black-box entry subcircuit for gf180mcu_fd_sc_mcu7t5v0__oai21_2 abstract view
.subckt gf180mcu_fd_sc_mcu7t5v0__oai21_2 A1 A2 B ZN VDD VSS
.ends

* Black-box entry subcircuit for gf180mcu_fd_sc_mcu7t5v0__nand4_1 abstract view
.subckt gf180mcu_fd_sc_mcu7t5v0__nand4_1 A1 A2 A3 A4 ZN VDD VSS
.ends

* Black-box entry subcircuit for gf180mcu_fd_sc_mcu7t5v0__nand2_2 abstract view
.subckt gf180mcu_fd_sc_mcu7t5v0__nand2_2 A1 A2 ZN VDD VSS
.ends

* Black-box entry subcircuit for gf180mcu_fd_sc_mcu7t5v0__aoi21_2 abstract view
.subckt gf180mcu_fd_sc_mcu7t5v0__aoi21_2 A1 A2 B ZN VDD VSS
.ends

* Black-box entry subcircuit for gf180mcu_fd_sc_mcu7t5v0__nor2_2 abstract view
.subckt gf180mcu_fd_sc_mcu7t5v0__nor2_2 A1 A2 ZN VDD VSS
.ends

* Black-box entry subcircuit for gf180mcu_fd_sc_mcu7t5v0__oai33_1 abstract view
.subckt gf180mcu_fd_sc_mcu7t5v0__oai33_1 A1 A2 A3 B1 B2 B3 ZN VDD VSS
.ends

* Black-box entry subcircuit for gf180mcu_fd_sc_mcu7t5v0__aoi22_2 abstract view
.subckt gf180mcu_fd_sc_mcu7t5v0__aoi22_2 A1 A2 B1 B2 ZN VDD VSS
.ends

* Black-box entry subcircuit for gf180mcu_fd_sc_mcu7t5v0__clkbuf_12 abstract view
.subckt gf180mcu_fd_sc_mcu7t5v0__clkbuf_12 I Z VDD VSS
.ends

* Black-box entry subcircuit for gf180mcu_fd_sc_mcu7t5v0__oai211_2 abstract view
.subckt gf180mcu_fd_sc_mcu7t5v0__oai211_2 A1 A2 B C ZN VDD VSS
.ends

* Black-box entry subcircuit for gf180mcu_fd_sc_mcu7t5v0__buf_20 abstract view
.subckt gf180mcu_fd_sc_mcu7t5v0__buf_20 I Z VDD VSS
.ends

* Black-box entry subcircuit for gf180mcu_fd_sc_mcu7t5v0__aoi211_2 abstract view
.subckt gf180mcu_fd_sc_mcu7t5v0__aoi211_2 A1 A2 B C ZN VDD VSS
.ends

* Black-box entry subcircuit for gf180mcu_fd_sc_mcu7t5v0__aoi211_4 abstract view
.subckt gf180mcu_fd_sc_mcu7t5v0__aoi211_4 A1 A2 B C ZN VDD VSS
.ends

* Black-box entry subcircuit for gf180mcu_fd_sc_mcu7t5v0__oai221_1 abstract view
.subckt gf180mcu_fd_sc_mcu7t5v0__oai221_1 A1 A2 B1 B2 C ZN VDD VSS
.ends

* Black-box entry subcircuit for gf180mcu_fd_sc_mcu7t5v0__oai31_2 abstract view
.subckt gf180mcu_fd_sc_mcu7t5v0__oai31_2 A1 A2 A3 B ZN VDD VSS
.ends

* Black-box entry subcircuit for gf180mcu_fd_sc_mcu7t5v0__oai32_2 abstract view
.subckt gf180mcu_fd_sc_mcu7t5v0__oai32_2 A1 A2 A3 B1 B2 ZN VDD VSS
.ends

.subckt matrix_multiply clk execute input_val[0] input_val[1] input_val[2] input_val[3]
+ input_val[4] input_val[5] input_val[6] input_val[7] reset result[0] result[10] result[11]
+ result[12] result[13] result[14] result[15] result[16] result[1] result[2] result[3]
+ result[4] result[5] result[6] result[7] result[8] result[9] sel_in[0] sel_in[1]
+ sel_in[2] sel_out[0] sel_out[1] vccd1 vssd1
XFILLER_140_296 vccd1 vssd1 gf180mcu_fd_sc_mcu7t5v0__fill_2
XFILLER_39_211 vccd1 vssd1 gf180mcu_fd_sc_mcu7t5v0__fill_2
XFILLER_39_222 vccd1 vssd1 gf180mcu_fd_sc_mcu7t5v0__fillcap_4
XFILLER_67_553 vccd1 vssd1 gf180mcu_fd_sc_mcu7t5v0__fill_2
XFILLER_82_501 vccd1 vssd1 gf180mcu_fd_sc_mcu7t5v0__fill_2
XFILLER_95_884 vccd1 vssd1 gf180mcu_fd_sc_mcu7t5v0__fillcap_4
XANTENNA__5417__B1 _0712_ vccd1 vssd1 gf180mcu_fd_sc_mcu7t5v0__antenna
XFILLER_55_726 vccd1 vssd1 gf180mcu_fd_sc_mcu7t5v0__fill_1
XFILLER_27_428 vccd1 vssd1 gf180mcu_fd_sc_mcu7t5v0__fillcap_64
XFILLER_55_748 vccd1 vssd1 gf180mcu_fd_sc_mcu7t5v0__fillcap_8
XFILLER_54_225 vccd1 vssd1 gf180mcu_fd_sc_mcu7t5v0__fillcap_16
XANTENNA__5968__A1 _1896_ vccd1 vssd1 gf180mcu_fd_sc_mcu7t5v0__antenna
XFILLER_82_534 vccd1 vssd1 gf180mcu_fd_sc_mcu7t5v0__fill_2
XFILLER_54_247 vccd1 vssd1 gf180mcu_fd_sc_mcu7t5v0__fill_1
XFILLER_82_567 vccd1 vssd1 gf180mcu_fd_sc_mcu7t5v0__fillcap_4
XFILLER_54_269 vccd1 vssd1 gf180mcu_fd_sc_mcu7t5v0__fill_2
XFILLER_74_1003 vccd1 vssd1 gf180mcu_fd_sc_mcu7t5v0__fillcap_16
XFILLER_51_921 vccd1 vssd1 gf180mcu_fd_sc_mcu7t5v0__fill_2
XANTENNA__4640__A1 _3181_ vccd1 vssd1 gf180mcu_fd_sc_mcu7t5v0__antenna
XFILLER_50_420 vccd1 vssd1 gf180mcu_fd_sc_mcu7t5v0__fillcap_4
XFILLER_35_494 vccd1 vssd1 gf180mcu_fd_sc_mcu7t5v0__fill_2
XFILLER_23_634 vccd1 vssd1 gf180mcu_fd_sc_mcu7t5v0__fillcap_4
X_6845_ _0028_ net11 net1 A\[3\]\[4\] vccd1 vssd1 gf180mcu_fd_sc_mcu7t5v0__dffrnq_1
XFILLER_50_431 vccd1 vssd1 gf180mcu_fd_sc_mcu7t5v0__fill_1
X_6776_ _2673_ _2200_ _2724_ _2729_ vccd1 vssd1 gf180mcu_fd_sc_mcu7t5v0__mux2_2
XANTENNA__5196__A2 _1054_ vccd1 vssd1 gf180mcu_fd_sc_mcu7t5v0__antenna
XANTENNA__6393__A1 _2361_ vccd1 vssd1 gf180mcu_fd_sc_mcu7t5v0__antenna
X_3988_ _0784_ _3079_ _3140_ _3148_ vccd1 vssd1 gf180mcu_fd_sc_mcu7t5v0__nor3_2
X_5727_ _1336_ _1343_ _1639_ vccd1 vssd1 gf180mcu_fd_sc_mcu7t5v0__xor2_1
XFILLER_136_514 vccd1 vssd1 gf180mcu_fd_sc_mcu7t5v0__fillcap_16
XANTENNA__6160__I _1482_ vccd1 vssd1 gf180mcu_fd_sc_mcu7t5v0__antenna
X_5658_ _1505_ _1562_ _1563_ vccd1 vssd1 gf180mcu_fd_sc_mcu7t5v0__nor2_1
X_4609_ _0397_ _0398_ _0433_ vccd1 vssd1 gf180mcu_fd_sc_mcu7t5v0__nand2_1
XFILLER_102_1170 vccd1 vssd1 gf180mcu_fd_sc_mcu7t5v0__fill_1
XFILLER_11_1064 vccd1 vssd1 gf180mcu_fd_sc_mcu7t5v0__fill_1
X_5589_ _1486_ _0998_ _1437_ _0999_ _1487_ vccd1 vssd1 gf180mcu_fd_sc_mcu7t5v0__aoi22_1
XFILLER_123_208 vccd1 vssd1 gf180mcu_fd_sc_mcu7t5v0__fillcap_4
XFILLER_116_260 vccd1 vssd1 gf180mcu_fd_sc_mcu7t5v0__fillcap_16
XFILLER_117_783 vccd1 vssd1 gf180mcu_fd_sc_mcu7t5v0__fill_1
XFILLER_2_527 vccd1 vssd1 gf180mcu_fd_sc_mcu7t5v0__fillcap_4
XFILLER_105_945 vccd1 vssd1 gf180mcu_fd_sc_mcu7t5v0__fill_2
XFILLER_81_1007 vccd1 vssd1 gf180mcu_fd_sc_mcu7t5v0__fill_2
XFILLER_132_753 vccd1 vssd1 gf180mcu_fd_sc_mcu7t5v0__fill_2
XFILLER_78_818 vccd1 vssd1 gf180mcu_fd_sc_mcu7t5v0__fill_1
XFILLER_89_144 vccd1 vssd1 gf180mcu_fd_sc_mcu7t5v0__fillcap_8
XFILLER_105_978 vccd1 vssd1 gf180mcu_fd_sc_mcu7t5v0__fill_2
XANTENNA__6448__A2 _2427_ vccd1 vssd1 gf180mcu_fd_sc_mcu7t5v0__antenna
XANTENNA__4459__A1 _2930_ vccd1 vssd1 gf180mcu_fd_sc_mcu7t5v0__antenna
XFILLER_104_488 vccd1 vssd1 gf180mcu_fd_sc_mcu7t5v0__fillcap_4
XFILLER_58_542 vccd1 vssd1 gf180mcu_fd_sc_mcu7t5v0__fill_2
XFILLER_19_918 vccd1 vssd1 gf180mcu_fd_sc_mcu7t5v0__fillcap_4
XFILLER_86_884 vccd1 vssd1 gf180mcu_fd_sc_mcu7t5v0__fill_2
XFILLER_45_203 vccd1 vssd1 gf180mcu_fd_sc_mcu7t5v0__fillcap_8
XFILLER_100_683 vccd1 vssd1 gf180mcu_fd_sc_mcu7t5v0__fillcap_16
XFILLER_45_225 vccd1 vssd1 gf180mcu_fd_sc_mcu7t5v0__fill_2
XFILLER_2_1221 vccd1 vssd1 gf180mcu_fd_sc_mcu7t5v0__fill_2
XFILLER_73_534 vccd1 vssd1 gf180mcu_fd_sc_mcu7t5v0__fill_2
XTAP_2501 vccd1 vssd1 gf180mcu_fd_sc_mcu7t5v0__filltie
XFILLER_45_236 vccd1 vssd1 gf180mcu_fd_sc_mcu7t5v0__fill_2
XFILLER_73_545 vccd1 vssd1 gf180mcu_fd_sc_mcu7t5v0__fill_1
XFILLER_93_58 vccd1 vssd1 gf180mcu_fd_sc_mcu7t5v0__fill_2
XTAP_2512 vccd1 vssd1 gf180mcu_fd_sc_mcu7t5v0__filltie
XTAP_2523 vccd1 vssd1 gf180mcu_fd_sc_mcu7t5v0__filltie
XFILLER_73_567 vccd1 vssd1 gf180mcu_fd_sc_mcu7t5v0__fill_1
XTAP_2534 vccd1 vssd1 gf180mcu_fd_sc_mcu7t5v0__filltie
XANTENNA__5423__A3 _1285_ vccd1 vssd1 gf180mcu_fd_sc_mcu7t5v0__antenna
XTAP_1800 vccd1 vssd1 gf180mcu_fd_sc_mcu7t5v0__filltie
XTAP_2545 vccd1 vssd1 gf180mcu_fd_sc_mcu7t5v0__filltie
XTAP_2556 vccd1 vssd1 gf180mcu_fd_sc_mcu7t5v0__filltie
XTAP_1811 vccd1 vssd1 gf180mcu_fd_sc_mcu7t5v0__filltie
XFILLER_57_1223 vccd1 vssd1 gf180mcu_fd_sc_mcu7t5v0__fill_1
XTAP_1822 vccd1 vssd1 gf180mcu_fd_sc_mcu7t5v0__filltie
XTAP_2567 vccd1 vssd1 gf180mcu_fd_sc_mcu7t5v0__filltie
XFILLER_42_921 vccd1 vssd1 gf180mcu_fd_sc_mcu7t5v0__fill_1
XFILLER_60_217 vccd1 vssd1 gf180mcu_fd_sc_mcu7t5v0__fill_2
XTAP_2578 vccd1 vssd1 gf180mcu_fd_sc_mcu7t5v0__filltie
XTAP_1833 vccd1 vssd1 gf180mcu_fd_sc_mcu7t5v0__filltie
XTAP_2589 vccd1 vssd1 gf180mcu_fd_sc_mcu7t5v0__filltie
XTAP_1844 vccd1 vssd1 gf180mcu_fd_sc_mcu7t5v0__filltie
XFILLER_53_280 vccd1 vssd1 gf180mcu_fd_sc_mcu7t5v0__fillcap_4
XTAP_1855 vccd1 vssd1 gf180mcu_fd_sc_mcu7t5v0__filltie
XANTENNA__6860__RN net11 vccd1 vssd1 gf180mcu_fd_sc_mcu7t5v0__antenna
XTAP_1866 vccd1 vssd1 gf180mcu_fd_sc_mcu7t5v0__filltie
XFILLER_13_144 vccd1 vssd1 gf180mcu_fd_sc_mcu7t5v0__fillcap_64
XTAP_1877 vccd1 vssd1 gf180mcu_fd_sc_mcu7t5v0__filltie
XTAP_1888 vccd1 vssd1 gf180mcu_fd_sc_mcu7t5v0__filltie
XTAP_1899 vccd1 vssd1 gf180mcu_fd_sc_mcu7t5v0__filltie
XANTENNA__5187__A2 _1044_ vccd1 vssd1 gf180mcu_fd_sc_mcu7t5v0__antenna
XFILLER_9_137 vccd1 vssd1 gf180mcu_fd_sc_mcu7t5v0__fillcap_4
XANTENNA__4934__A2 _0766_ vccd1 vssd1 gf180mcu_fd_sc_mcu7t5v0__antenna
XFILLER_139_352 vccd1 vssd1 gf180mcu_fd_sc_mcu7t5v0__fill_2
XFILLER_6_811 vccd1 vssd1 gf180mcu_fd_sc_mcu7t5v0__fillcap_4
XFILLER_139_396 vccd1 vssd1 gf180mcu_fd_sc_mcu7t5v0__fillcap_8
XFILLER_115_709 vccd1 vssd1 gf180mcu_fd_sc_mcu7t5v0__fill_1
XFILLER_5_354 vccd1 vssd1 gf180mcu_fd_sc_mcu7t5v0__fill_1
XFILLER_108_761 vccd1 vssd1 gf180mcu_fd_sc_mcu7t5v0__fill_1
XANTENNA__4698__A1 _3371_ vccd1 vssd1 gf180mcu_fd_sc_mcu7t5v0__antenna
XFILLER_108_772 vccd1 vssd1 gf180mcu_fd_sc_mcu7t5v0__fillcap_8
XFILLER_123_720 vccd1 vssd1 gf180mcu_fd_sc_mcu7t5v0__fill_2
XFILLER_64_1205 vccd1 vssd1 gf180mcu_fd_sc_mcu7t5v0__fillcap_16
XFILLER_123_731 vccd1 vssd1 gf180mcu_fd_sc_mcu7t5v0__fill_2
XFILLER_107_293 vccd1 vssd1 gf180mcu_fd_sc_mcu7t5v0__fill_2
XFILLER_96_626 vccd1 vssd1 gf180mcu_fd_sc_mcu7t5v0__fillcap_4
XFILLER_111_948 vccd1 vssd1 gf180mcu_fd_sc_mcu7t5v0__fillcap_32
XFILLER_27_1060 vccd1 vssd1 gf180mcu_fd_sc_mcu7t5v0__fillcap_4
XFILLER_77_851 vccd1 vssd1 gf180mcu_fd_sc_mcu7t5v0__fill_1
XFILLER_37_715 vccd1 vssd1 gf180mcu_fd_sc_mcu7t5v0__fill_2
XFILLER_76_361 vccd1 vssd1 gf180mcu_fd_sc_mcu7t5v0__fillcap_4
XFILLER_114_1063 vccd1 vssd1 gf180mcu_fd_sc_mcu7t5v0__fill_2
XFILLER_49_586 vccd1 vssd1 gf180mcu_fd_sc_mcu7t5v0__fill_2
XANTENNA__3673__A2 _2832_ vccd1 vssd1 gf180mcu_fd_sc_mcu7t5v0__antenna
XFILLER_77_895 vccd1 vssd1 gf180mcu_fd_sc_mcu7t5v0__fill_2
XFILLER_37_748 vccd1 vssd1 gf180mcu_fd_sc_mcu7t5v0__fill_1
XFILLER_64_534 vccd1 vssd1 gf180mcu_fd_sc_mcu7t5v0__fill_1
XFILLER_92_843 vccd1 vssd1 gf180mcu_fd_sc_mcu7t5v0__fill_2
XFILLER_64_545 vccd1 vssd1 gf180mcu_fd_sc_mcu7t5v0__fill_2
XANTENNA__6611__A2 _1187_ vccd1 vssd1 gf180mcu_fd_sc_mcu7t5v0__antenna
X_4960_ _0748_ _0752_ _0794_ _0796_ vccd1 vssd1 gf180mcu_fd_sc_mcu7t5v0__oai21_1
XFILLER_91_364 vccd1 vssd1 gf180mcu_fd_sc_mcu7t5v0__fillcap_8
XFILLER_51_206 vccd1 vssd1 gf180mcu_fd_sc_mcu7t5v0__fill_2
XANTENNA__4622__A1 _0315_ vccd1 vssd1 gf180mcu_fd_sc_mcu7t5v0__antenna
X_3911_ _0718_ _2939_ _3071_ vccd1 vssd1 gf180mcu_fd_sc_mcu7t5v0__nand2_1
XFILLER_44_291 vccd1 vssd1 gf180mcu_fd_sc_mcu7t5v0__fill_2
X_4891_ _0714_ _0719_ _0720_ vccd1 vssd1 gf180mcu_fd_sc_mcu7t5v0__xnor2_1
XANTENNA__6851__RN net11 vccd1 vssd1 gf180mcu_fd_sc_mcu7t5v0__antenna
XANTENNA__3976__A3 _3135_ vccd1 vssd1 gf180mcu_fd_sc_mcu7t5v0__antenna
XFILLER_60_751 vccd1 vssd1 gf180mcu_fd_sc_mcu7t5v0__fill_2
XFILLER_71_1209 vccd1 vssd1 gf180mcu_fd_sc_mcu7t5v0__fillcap_8
X_6630_ _1661_ _1804_ _1586_ _2617_ vccd1 vssd1 gf180mcu_fd_sc_mcu7t5v0__aoi21_1
X_3842_ _3000_ _3001_ _3002_ vccd1 vssd1 gf180mcu_fd_sc_mcu7t5v0__nand2_1
XANTENNA__5178__A2 _0941_ vccd1 vssd1 gf180mcu_fd_sc_mcu7t5v0__antenna
XFILLER_60_784 vccd1 vssd1 gf180mcu_fd_sc_mcu7t5v0__fill_2
XFILLER_60_795 vccd1 vssd1 gf180mcu_fd_sc_mcu7t5v0__fill_1
XFILLER_34_1031 vccd1 vssd1 gf180mcu_fd_sc_mcu7t5v0__fillcap_64
XFILLER_80_2 vccd1 vssd1 gf180mcu_fd_sc_mcu7t5v0__fillcap_32
X_6561_ _1749_ _1759_ _2547_ vccd1 vssd1 gf180mcu_fd_sc_mcu7t5v0__xor2_1
X_3773_ _2932_ _2933_ vccd1 vssd1 gf180mcu_fd_sc_mcu7t5v0__clkbuf_1
XANTENNA__4925__A2 _0755_ vccd1 vssd1 gf180mcu_fd_sc_mcu7t5v0__antenna
X_5512_ _1401_ _1363_ _1402_ _1376_ _1403_ vccd1 vssd1 gf180mcu_fd_sc_mcu7t5v0__oai22_1
XANTENNA__6127__A1 _1562_ vccd1 vssd1 gf180mcu_fd_sc_mcu7t5v0__antenna
X_6492_ _2275_ _2474_ _2475_ _2264_ _2476_ vccd1 vssd1 gf180mcu_fd_sc_mcu7t5v0__oai211_1
XFILLER_121_1067 vccd1 vssd1 gf180mcu_fd_sc_mcu7t5v0__fillcap_64
X_5443_ _1281_ _1326_ _1327_ vccd1 vssd1 gf180mcu_fd_sc_mcu7t5v0__nor2_1
XFILLER_69_1138 vccd1 vssd1 gf180mcu_fd_sc_mcu7t5v0__fillcap_64
XFILLER_114_720 vccd1 vssd1 gf180mcu_fd_sc_mcu7t5v0__fill_2
XANTENNA__5350__A2 _1223_ vccd1 vssd1 gf180mcu_fd_sc_mcu7t5v0__antenna
X_5374_ _1250_ _1248_ _3270_ _3272_ _1251_ vccd1 vssd1 gf180mcu_fd_sc_mcu7t5v0__and4_1
XFILLER_99_420 vccd1 vssd1 gf180mcu_fd_sc_mcu7t5v0__fillcap_4
XFILLER_141_550 vccd1 vssd1 gf180mcu_fd_sc_mcu7t5v0__fillcap_4
X_4325_ _3382_ _0149_ vccd1 vssd1 gf180mcu_fd_sc_mcu7t5v0__clkbuf_1
XFILLER_59_328 vccd1 vssd1 gf180mcu_fd_sc_mcu7t5v0__fill_1
XFILLER_87_637 vccd1 vssd1 gf180mcu_fd_sc_mcu7t5v0__fill_2
XFILLER_101_414 vccd1 vssd1 gf180mcu_fd_sc_mcu7t5v0__fill_1
XFILLER_59_339 vccd1 vssd1 gf180mcu_fd_sc_mcu7t5v0__fillcap_16
XFILLER_101_425 vccd1 vssd1 gf180mcu_fd_sc_mcu7t5v0__fill_1
X_4256_ _0079_ _0080_ vccd1 vssd1 gf180mcu_fd_sc_mcu7t5v0__buf_1
XANTENNA__5102__A2 _0951_ vccd1 vssd1 gf180mcu_fd_sc_mcu7t5v0__antenna
XFILLER_86_136 vccd1 vssd1 gf180mcu_fd_sc_mcu7t5v0__fillcap_4
XFILLER_101_447 vccd1 vssd1 gf180mcu_fd_sc_mcu7t5v0__fill_2
XANTENNA__4310__B1 _2988_ vccd1 vssd1 gf180mcu_fd_sc_mcu7t5v0__antenna
XFILLER_80_1095 vccd1 vssd1 gf180mcu_fd_sc_mcu7t5v0__fillcap_4
XFILLER_95_670 vccd1 vssd1 gf180mcu_fd_sc_mcu7t5v0__fill_1
X_4187_ _3346_ _2786_ _3347_ vccd1 vssd1 gf180mcu_fd_sc_mcu7t5v0__nand2_1
XFILLER_68_895 vccd1 vssd1 gf180mcu_fd_sc_mcu7t5v0__fill_2
XFILLER_95_681 vccd1 vssd1 gf180mcu_fd_sc_mcu7t5v0__fillcap_16
XFILLER_55_523 vccd1 vssd1 gf180mcu_fd_sc_mcu7t5v0__fillcap_4
XFILLER_67_383 vccd1 vssd1 gf180mcu_fd_sc_mcu7t5v0__fill_1
XFILLER_55_545 vccd1 vssd1 gf180mcu_fd_sc_mcu7t5v0__fillcap_4
XFILLER_83_854 vccd1 vssd1 gf180mcu_fd_sc_mcu7t5v0__fill_2
XANTENNA__3779__I _1081_ vccd1 vssd1 gf180mcu_fd_sc_mcu7t5v0__antenna
XFILLER_55_567 vccd1 vssd1 gf180mcu_fd_sc_mcu7t5v0__fill_1
XANTENNA__6602__A2 _2581_ vccd1 vssd1 gf180mcu_fd_sc_mcu7t5v0__antenna
XFILLER_63_17 vccd1 vssd1 gf180mcu_fd_sc_mcu7t5v0__fill_2
XTAP_1107 vccd1 vssd1 gf180mcu_fd_sc_mcu7t5v0__filltie
XTAP_1118 vccd1 vssd1 gf180mcu_fd_sc_mcu7t5v0__filltie
XANTENNA__4613__A1 _0424_ vccd1 vssd1 gf180mcu_fd_sc_mcu7t5v0__antenna
XTAP_1129 vccd1 vssd1 gf180mcu_fd_sc_mcu7t5v0__filltie
XFILLER_42_239 vccd1 vssd1 gf180mcu_fd_sc_mcu7t5v0__fillcap_4
XANTENNA__6842__RN net11 vccd1 vssd1 gf180mcu_fd_sc_mcu7t5v0__antenna
XFILLER_50_250 vccd1 vssd1 gf180mcu_fd_sc_mcu7t5v0__fill_2
XFILLER_51_773 vccd1 vssd1 gf180mcu_fd_sc_mcu7t5v0__fillcap_8
XANTENNA__5169__A2 _0931_ vccd1 vssd1 gf180mcu_fd_sc_mcu7t5v0__antenna
X_6828_ _0011_ net11 net1 A\[1\]\[3\] vccd1 vssd1 gf180mcu_fd_sc_mcu7t5v0__dffrnq_1
X_6759_ _2654_ _2703_ _2717_ vccd1 vssd1 gf180mcu_fd_sc_mcu7t5v0__nand2_1
XFILLER_104_1221 vccd1 vssd1 gf180mcu_fd_sc_mcu7t5v0__fill_2
XFILLER_109_503 vccd1 vssd1 gf180mcu_fd_sc_mcu7t5v0__fill_1
XFILLER_136_300 vccd1 vssd1 gf180mcu_fd_sc_mcu7t5v0__fill_2
XFILLER_137_845 vccd1 vssd1 gf180mcu_fd_sc_mcu7t5v0__fillcap_4
XFILLER_109_547 vccd1 vssd1 gf180mcu_fd_sc_mcu7t5v0__fill_1
XANTENNA__6669__A2 _2632_ vccd1 vssd1 gf180mcu_fd_sc_mcu7t5v0__antenna
XFILLER_3_847 vccd1 vssd1 gf180mcu_fd_sc_mcu7t5v0__fillcap_4
XFILLER_132_550 vccd1 vssd1 gf180mcu_fd_sc_mcu7t5v0__fill_2
XFILLER_105_775 vccd1 vssd1 gf180mcu_fd_sc_mcu7t5v0__fill_2
XFILLER_137_1063 vccd1 vssd1 gf180mcu_fd_sc_mcu7t5v0__fill_2
XFILLER_120_712 vccd1 vssd1 gf180mcu_fd_sc_mcu7t5v0__fill_2
XFILLER_120_723 vccd1 vssd1 gf180mcu_fd_sc_mcu7t5v0__fill_2
XFILLER_144_53 vccd1 vssd1 gf180mcu_fd_sc_mcu7t5v0__fill_1
XFILLER_144_64 vccd1 vssd1 gf180mcu_fd_sc_mcu7t5v0__fillcap_4
XFILLER_120_756 vccd1 vssd1 gf180mcu_fd_sc_mcu7t5v0__fill_2
XFILLER_59_851 vccd1 vssd1 gf180mcu_fd_sc_mcu7t5v0__fill_1
XFILLER_58_350 vccd1 vssd1 gf180mcu_fd_sc_mcu7t5v0__fill_1
XFILLER_65_309 vccd1 vssd1 gf180mcu_fd_sc_mcu7t5v0__fill_2
XFILLER_77_169 vccd1 vssd1 gf180mcu_fd_sc_mcu7t5v0__fill_2
XFILLER_46_501 vccd1 vssd1 gf180mcu_fd_sc_mcu7t5v0__fillcap_8
XANTENNA__3655__A2 _2813_ vccd1 vssd1 gf180mcu_fd_sc_mcu7t5v0__antenna
XFILLER_46_534 vccd1 vssd1 gf180mcu_fd_sc_mcu7t5v0__fillcap_8
XFILLER_37_73 vccd1 vssd1 gf180mcu_fd_sc_mcu7t5v0__fillcap_64
XFILLER_18_247 vccd1 vssd1 gf180mcu_fd_sc_mcu7t5v0__fill_1
XFILLER_46_567 vccd1 vssd1 gf180mcu_fd_sc_mcu7t5v0__fillcap_8
XTAP_2320 vccd1 vssd1 gf180mcu_fd_sc_mcu7t5v0__filltie
XTAP_2331 vccd1 vssd1 gf180mcu_fd_sc_mcu7t5v0__filltie
XTAP_2342 vccd1 vssd1 gf180mcu_fd_sc_mcu7t5v0__filltie
XTAP_2353 vccd1 vssd1 gf180mcu_fd_sc_mcu7t5v0__filltie
XTAP_2364 vccd1 vssd1 gf180mcu_fd_sc_mcu7t5v0__filltie
XFILLER_2_1095 vccd1 vssd1 gf180mcu_fd_sc_mcu7t5v0__fillcap_4
XTAP_1630 vccd1 vssd1 gf180mcu_fd_sc_mcu7t5v0__filltie
XTAP_2375 vccd1 vssd1 gf180mcu_fd_sc_mcu7t5v0__filltie
XTAP_1641 vccd1 vssd1 gf180mcu_fd_sc_mcu7t5v0__filltie
XFILLER_109_1110 vccd1 vssd1 gf180mcu_fd_sc_mcu7t5v0__fillcap_16
XANTENNA__6833__RN net11 vccd1 vssd1 gf180mcu_fd_sc_mcu7t5v0__antenna
XTAP_2386 vccd1 vssd1 gf180mcu_fd_sc_mcu7t5v0__filltie
XFILLER_57_1064 vccd1 vssd1 gf180mcu_fd_sc_mcu7t5v0__fill_1
XTAP_1652 vccd1 vssd1 gf180mcu_fd_sc_mcu7t5v0__filltie
XTAP_2397 vccd1 vssd1 gf180mcu_fd_sc_mcu7t5v0__filltie
XFILLER_53_50 vccd1 vssd1 gf180mcu_fd_sc_mcu7t5v0__fillcap_8
XTAP_1663 vccd1 vssd1 gf180mcu_fd_sc_mcu7t5v0__filltie
XTAP_1674 vccd1 vssd1 gf180mcu_fd_sc_mcu7t5v0__filltie
XFILLER_144_1034 vccd1 vssd1 gf180mcu_fd_sc_mcu7t5v0__fillcap_16
XTAP_1685 vccd1 vssd1 gf180mcu_fd_sc_mcu7t5v0__filltie
XFILLER_41_261 vccd1 vssd1 gf180mcu_fd_sc_mcu7t5v0__fillcap_4
XTAP_1696 vccd1 vssd1 gf180mcu_fd_sc_mcu7t5v0__filltie
XFILLER_41_283 vccd1 vssd1 gf180mcu_fd_sc_mcu7t5v0__fill_1
XFILLER_30_957 vccd1 vssd1 gf180mcu_fd_sc_mcu7t5v0__fill_1
XANTENNA__4907__A2 _0736_ vccd1 vssd1 gf180mcu_fd_sc_mcu7t5v0__antenna
XFILLER_144_1089 vccd1 vssd1 gf180mcu_fd_sc_mcu7t5v0__fill_1
XFILLER_128_823 vccd1 vssd1 gf180mcu_fd_sc_mcu7t5v0__fill_2
XFILLER_139_160 vccd1 vssd1 gf180mcu_fd_sc_mcu7t5v0__fillcap_8
XFILLER_127_333 vccd1 vssd1 gf180mcu_fd_sc_mcu7t5v0__fillcap_8
XANTENNA__3591__A1 _2179_ vccd1 vssd1 gf180mcu_fd_sc_mcu7t5v0__antenna
XFILLER_128_889 vccd1 vssd1 gf180mcu_fd_sc_mcu7t5v0__fillcap_16
XFILLER_142_303 vccd1 vssd1 gf180mcu_fd_sc_mcu7t5v0__fillcap_8
XFILLER_142_347 vccd1 vssd1 gf180mcu_fd_sc_mcu7t5v0__fill_2
XFILLER_111_712 vccd1 vssd1 gf180mcu_fd_sc_mcu7t5v0__fill_1
XANTENNA__3894__A2 _3052_ vccd1 vssd1 gf180mcu_fd_sc_mcu7t5v0__antenna
XFILLER_111_723 vccd1 vssd1 gf180mcu_fd_sc_mcu7t5v0__fill_1
X_4110_ _3269_ _3270_ vccd1 vssd1 gf180mcu_fd_sc_mcu7t5v0__clkbuf_1
X_5090_ _0935_ _0936_ _0939_ vccd1 vssd1 gf180mcu_fd_sc_mcu7t5v0__and2_1
XFILLER_111_745 vccd1 vssd1 gf180mcu_fd_sc_mcu7t5v0__fill_1
XANTENNA__5096__A1 _0868_ vccd1 vssd1 gf180mcu_fd_sc_mcu7t5v0__antenna
X_4041_ _3199_ _3200_ _3201_ vccd1 vssd1 gf180mcu_fd_sc_mcu7t5v0__and2_1
XFILLER_110_255 vccd1 vssd1 gf180mcu_fd_sc_mcu7t5v0__fill_1
XFILLER_110_266 vccd1 vssd1 gf180mcu_fd_sc_mcu7t5v0__fill_2
XFILLER_65_821 vccd1 vssd1 gf180mcu_fd_sc_mcu7t5v0__fill_1
XFILLER_37_523 vccd1 vssd1 gf180mcu_fd_sc_mcu7t5v0__fillcap_4
XFILLER_49_394 vccd1 vssd1 gf180mcu_fd_sc_mcu7t5v0__fillcap_4
XFILLER_65_854 vccd1 vssd1 gf180mcu_fd_sc_mcu7t5v0__fill_1
XFILLER_37_589 vccd1 vssd1 gf180mcu_fd_sc_mcu7t5v0__fill_2
X_5992_ _3220_ _3287_ _1930_ vccd1 vssd1 gf180mcu_fd_sc_mcu7t5v0__and2_1
XFILLER_91_183 vccd1 vssd1 gf180mcu_fd_sc_mcu7t5v0__fill_2
XFILLER_75_1131 vccd1 vssd1 gf180mcu_fd_sc_mcu7t5v0__fillcap_4
X_4943_ _0775_ _0776_ _0777_ vccd1 vssd1 gf180mcu_fd_sc_mcu7t5v0__xor2_1
XANTENNA__6824__RN net11 vccd1 vssd1 gf180mcu_fd_sc_mcu7t5v0__antenna
XFILLER_33_751 vccd1 vssd1 gf180mcu_fd_sc_mcu7t5v0__fill_1
XFILLER_127_1221 vccd1 vssd1 gf180mcu_fd_sc_mcu7t5v0__fill_2
XFILLER_32_250 vccd1 vssd1 gf180mcu_fd_sc_mcu7t5v0__fill_1
X_4874_ _0683_ _0698_ _0700_ _0701_ vccd1 vssd1 gf180mcu_fd_sc_mcu7t5v0__xnor3_1
XFILLER_32_261 vccd1 vssd1 gf180mcu_fd_sc_mcu7t5v0__fill_2
X_6613_ _2597_ _2598_ _2599_ _2491_ _2264_ _2600_ vccd1 vssd1 gf180mcu_fd_sc_mcu7t5v0__aoi221_1
X_3825_ _2984_ _2985_ vccd1 vssd1 gf180mcu_fd_sc_mcu7t5v0__clkbuf_1
XFILLER_20_456 vccd1 vssd1 gf180mcu_fd_sc_mcu7t5v0__fillcap_4
XFILLER_119_812 vccd1 vssd1 gf180mcu_fd_sc_mcu7t5v0__fill_2
XFILLER_119_823 vccd1 vssd1 gf180mcu_fd_sc_mcu7t5v0__fillcap_4
XANTENNA__4223__I _3382_ vccd1 vssd1 gf180mcu_fd_sc_mcu7t5v0__antenna
X_6544_ _3180_ _3191_ _2529_ vccd1 vssd1 gf180mcu_fd_sc_mcu7t5v0__and2_1
XFILLER_118_311 vccd1 vssd1 gf180mcu_fd_sc_mcu7t5v0__fill_2
X_3756_ _2858_ _2871_ _2915_ _2916_ vccd1 vssd1 gf180mcu_fd_sc_mcu7t5v0__aoi21_1
XFILLER_134_815 vccd1 vssd1 gf180mcu_fd_sc_mcu7t5v0__fill_1
X_6475_ _2199_ _2202_ _2458_ vccd1 vssd1 gf180mcu_fd_sc_mcu7t5v0__nor2_1
XFILLER_118_366 vccd1 vssd1 gf180mcu_fd_sc_mcu7t5v0__fillcap_8
XFILLER_134_826 vccd1 vssd1 gf180mcu_fd_sc_mcu7t5v0__fill_2
X_3687_ _2842_ _2846_ _2847_ vccd1 vssd1 gf180mcu_fd_sc_mcu7t5v0__xor2_1
XFILLER_134_837 vccd1 vssd1 gf180mcu_fd_sc_mcu7t5v0__fillcap_16
XFILLER_12_1170 vccd1 vssd1 gf180mcu_fd_sc_mcu7t5v0__fill_1
X_5426_ _0072_ _0684_ _1308_ vccd1 vssd1 gf180mcu_fd_sc_mcu7t5v0__nand2_1
XANTENNA__4126__A3 _3285_ vccd1 vssd1 gf180mcu_fd_sc_mcu7t5v0__antenna
XANTENNA__6520__A1 _2368_ vccd1 vssd1 gf180mcu_fd_sc_mcu7t5v0__antenna
XFILLER_82_1102 vccd1 vssd1 gf180mcu_fd_sc_mcu7t5v0__fillcap_64
XFILLER_142_870 vccd1 vssd1 gf180mcu_fd_sc_mcu7t5v0__fill_1
X_5357_ _0834_ _1231_ _1232_ vccd1 vssd1 gf180mcu_fd_sc_mcu7t5v0__xnor2_1
XFILLER_102_701 vccd1 vssd1 gf180mcu_fd_sc_mcu7t5v0__fillcap_4
XFILLER_142_881 vccd1 vssd1 gf180mcu_fd_sc_mcu7t5v0__fill_2
XFILLER_0_839 vccd1 vssd1 gf180mcu_fd_sc_mcu7t5v0__fill_1
XFILLER_99_283 vccd1 vssd1 gf180mcu_fd_sc_mcu7t5v0__fill_1
X_4308_ _3350_ _2863_ _0132_ vccd1 vssd1 gf180mcu_fd_sc_mcu7t5v0__nand2_1
XFILLER_101_211 vccd1 vssd1 gf180mcu_fd_sc_mcu7t5v0__fill_2
XFILLER_114_594 vccd1 vssd1 gf180mcu_fd_sc_mcu7t5v0__fill_2
XFILLER_99_294 vccd1 vssd1 gf180mcu_fd_sc_mcu7t5v0__fill_2
X_5288_ _1062_ _1156_ vccd1 vssd1 gf180mcu_fd_sc_mcu7t5v0__clkbuf_1
XFILLER_88_979 vccd1 vssd1 gf180mcu_fd_sc_mcu7t5v0__fill_1
XFILLER_101_233 vccd1 vssd1 gf180mcu_fd_sc_mcu7t5v0__fill_1
XFILLER_59_158 vccd1 vssd1 gf180mcu_fd_sc_mcu7t5v0__fill_2
XFILLER_59_169 vccd1 vssd1 gf180mcu_fd_sc_mcu7t5v0__fillcap_4
X_4239_ A\[0\]\[2\] _3399_ vccd1 vssd1 gf180mcu_fd_sc_mcu7t5v0__clkbuf_1
XFILLER_114_34 vccd1 vssd1 gf180mcu_fd_sc_mcu7t5v0__fill_1
XANTENNA__3637__A2 _1554_ vccd1 vssd1 gf180mcu_fd_sc_mcu7t5v0__antenna
XFILLER_114_45 vccd1 vssd1 gf180mcu_fd_sc_mcu7t5v0__fillcap_4
XFILLER_68_692 vccd1 vssd1 gf180mcu_fd_sc_mcu7t5v0__fill_2
XFILLER_28_534 vccd1 vssd1 gf180mcu_fd_sc_mcu7t5v0__fillcap_64
XFILLER_56_854 vccd1 vssd1 gf180mcu_fd_sc_mcu7t5v0__fillcap_32
XFILLER_70_301 vccd1 vssd1 gf180mcu_fd_sc_mcu7t5v0__fill_1
XFILLER_83_684 vccd1 vssd1 gf180mcu_fd_sc_mcu7t5v0__fill_2
XFILLER_70_312 vccd1 vssd1 gf180mcu_fd_sc_mcu7t5v0__fill_2
XFILLER_128_1007 vccd1 vssd1 gf180mcu_fd_sc_mcu7t5v0__fillcap_4
XFILLER_24_740 vccd1 vssd1 gf180mcu_fd_sc_mcu7t5v0__fillcap_4
XANTENNA__4062__A2 _3221_ vccd1 vssd1 gf180mcu_fd_sc_mcu7t5v0__antenna
XFILLER_90_37 vccd1 vssd1 gf180mcu_fd_sc_mcu7t5v0__fillcap_32
XFILLER_70_389 vccd1 vssd1 gf180mcu_fd_sc_mcu7t5v0__fill_1
XANTENNA__6339__A1 _2306_ vccd1 vssd1 gf180mcu_fd_sc_mcu7t5v0__antenna
XFILLER_51_570 vccd1 vssd1 gf180mcu_fd_sc_mcu7t5v0__fill_1
XFILLER_23_283 vccd1 vssd1 gf180mcu_fd_sc_mcu7t5v0__fill_1
XFILLER_12_957 vccd1 vssd1 gf180mcu_fd_sc_mcu7t5v0__fill_1
XANTENNA__5011__A1 _0847_ vccd1 vssd1 gf180mcu_fd_sc_mcu7t5v0__antenna
XFILLER_128_108 vccd1 vssd1 gf180mcu_fd_sc_mcu7t5v0__fill_1
XANTENNA__6817__CLK net1 vccd1 vssd1 gf180mcu_fd_sc_mcu7t5v0__antenna
XFILLER_128_2 vccd1 vssd1 gf180mcu_fd_sc_mcu7t5v0__fillcap_32