* NGSPICE file created from multiply_komal.ext - technology: gf180mcuC

* Black-box entry subcircuit for gf180mcu_fd_sc_mcu7t5v0__fill_2 abstract view
.subckt gf180mcu_fd_sc_mcu7t5v0__fill_2 VDD VSS
.ends

* Black-box entry subcircuit for gf180mcu_fd_sc_mcu7t5v0__fillcap_4 abstract view
.subckt gf180mcu_fd_sc_mcu7t5v0__fillcap_4 VDD VSS
.ends

* Black-box entry subcircuit for gf180mcu_fd_sc_mcu7t5v0__fill_1 abstract view
.subckt gf180mcu_fd_sc_mcu7t5v0__fill_1 VDD VSS
.ends

* Black-box entry subcircuit for gf180mcu_fd_sc_mcu7t5v0__fillcap_64 abstract view
.subckt gf180mcu_fd_sc_mcu7t5v0__fillcap_64 VDD VSS
.ends

* Black-box entry subcircuit for gf180mcu_fd_sc_mcu7t5v0__antenna abstract view
.subckt gf180mcu_fd_sc_mcu7t5v0__antenna I VDD VSS
.ends

* Black-box entry subcircuit for gf180mcu_fd_sc_mcu7t5v0__xor3_1 abstract view
.subckt gf180mcu_fd_sc_mcu7t5v0__xor3_1 A1 A2 A3 Z VDD VSS
.ends

* Black-box entry subcircuit for gf180mcu_fd_sc_mcu7t5v0__fillcap_8 abstract view
.subckt gf180mcu_fd_sc_mcu7t5v0__fillcap_8 VDD VSS
.ends

* Black-box entry subcircuit for gf180mcu_fd_sc_mcu7t5v0__xnor2_1 abstract view
.subckt gf180mcu_fd_sc_mcu7t5v0__xnor2_1 A1 A2 ZN VDD VSS
.ends

* Black-box entry subcircuit for gf180mcu_fd_sc_mcu7t5v0__nor2_1 abstract view
.subckt gf180mcu_fd_sc_mcu7t5v0__nor2_1 A1 A2 ZN VDD VSS
.ends

* Black-box entry subcircuit for gf180mcu_fd_sc_mcu7t5v0__buf_2 abstract view
.subckt gf180mcu_fd_sc_mcu7t5v0__buf_2 I Z VDD VSS
.ends

* Black-box entry subcircuit for gf180mcu_fd_sc_mcu7t5v0__and3_1 abstract view
.subckt gf180mcu_fd_sc_mcu7t5v0__and3_1 A1 A2 A3 Z VDD VSS
.ends

* Black-box entry subcircuit for gf180mcu_fd_sc_mcu7t5v0__fillcap_16 abstract view
.subckt gf180mcu_fd_sc_mcu7t5v0__fillcap_16 VDD VSS
.ends

* Black-box entry subcircuit for gf180mcu_fd_sc_mcu7t5v0__nand2_1 abstract view
.subckt gf180mcu_fd_sc_mcu7t5v0__nand2_1 A1 A2 ZN VDD VSS
.ends

* Black-box entry subcircuit for gf180mcu_fd_sc_mcu7t5v0__buf_1 abstract view
.subckt gf180mcu_fd_sc_mcu7t5v0__buf_1 I Z VDD VSS
.ends

* Black-box entry subcircuit for gf180mcu_fd_sc_mcu7t5v0__oai221_1 abstract view
.subckt gf180mcu_fd_sc_mcu7t5v0__oai221_1 A1 A2 B1 B2 C ZN VDD VSS
.ends

* Black-box entry subcircuit for gf180mcu_fd_sc_mcu7t5v0__xor2_1 abstract view
.subckt gf180mcu_fd_sc_mcu7t5v0__xor2_1 A1 A2 Z VDD VSS
.ends

* Black-box entry subcircuit for gf180mcu_fd_sc_mcu7t5v0__aoi22_1 abstract view
.subckt gf180mcu_fd_sc_mcu7t5v0__aoi22_1 A1 A2 B1 B2 ZN VDD VSS
.ends

* Black-box entry subcircuit for gf180mcu_fd_sc_mcu7t5v0__filltie abstract view
.subckt gf180mcu_fd_sc_mcu7t5v0__filltie VDD VSS
.ends

* Black-box entry subcircuit for gf180mcu_fd_sc_mcu7t5v0__dlya_1 abstract view
.subckt gf180mcu_fd_sc_mcu7t5v0__dlya_1 I Z VDD VSS
.ends

* Black-box entry subcircuit for gf180mcu_fd_sc_mcu7t5v0__fillcap_32 abstract view
.subckt gf180mcu_fd_sc_mcu7t5v0__fillcap_32 VDD VSS
.ends

* Black-box entry subcircuit for gf180mcu_fd_sc_mcu7t5v0__clkbuf_1 abstract view
.subckt gf180mcu_fd_sc_mcu7t5v0__clkbuf_1 I Z VDD VSS
.ends

* Black-box entry subcircuit for gf180mcu_fd_sc_mcu7t5v0__inv_1 abstract view
.subckt gf180mcu_fd_sc_mcu7t5v0__inv_1 I ZN VDD VSS
.ends

* Black-box entry subcircuit for gf180mcu_fd_sc_mcu7t5v0__or2_1 abstract view
.subckt gf180mcu_fd_sc_mcu7t5v0__or2_1 A1 A2 Z VDD VSS
.ends

* Black-box entry subcircuit for gf180mcu_fd_sc_mcu7t5v0__nand3_1 abstract view
.subckt gf180mcu_fd_sc_mcu7t5v0__nand3_1 A1 A2 A3 ZN VDD VSS
.ends

* Black-box entry subcircuit for gf180mcu_fd_sc_mcu7t5v0__aoi21_2 abstract view
.subckt gf180mcu_fd_sc_mcu7t5v0__aoi21_2 A1 A2 B ZN VDD VSS
.ends

* Black-box entry subcircuit for gf180mcu_fd_sc_mcu7t5v0__xor3_2 abstract view
.subckt gf180mcu_fd_sc_mcu7t5v0__xor3_2 A1 A2 A3 Z VDD VSS
.ends

* Black-box entry subcircuit for gf180mcu_fd_sc_mcu7t5v0__xnor3_1 abstract view
.subckt gf180mcu_fd_sc_mcu7t5v0__xnor3_1 A1 A2 A3 ZN VDD VSS
.ends

* Black-box entry subcircuit for gf180mcu_fd_sc_mcu7t5v0__and2_1 abstract view
.subckt gf180mcu_fd_sc_mcu7t5v0__and2_1 A1 A2 Z VDD VSS
.ends

* Black-box entry subcircuit for gf180mcu_fd_sc_mcu7t5v0__buf_4 abstract view
.subckt gf180mcu_fd_sc_mcu7t5v0__buf_4 I Z VDD VSS
.ends

* Black-box entry subcircuit for gf180mcu_fd_sc_mcu7t5v0__aoi21_1 abstract view
.subckt gf180mcu_fd_sc_mcu7t5v0__aoi21_1 A1 A2 B ZN VDD VSS
.ends

* Black-box entry subcircuit for gf180mcu_fd_sc_mcu7t5v0__nand4_1 abstract view
.subckt gf180mcu_fd_sc_mcu7t5v0__nand4_1 A1 A2 A3 A4 ZN VDD VSS
.ends

* Black-box entry subcircuit for gf180mcu_fd_sc_mcu7t5v0__dffq_1 abstract view
.subckt gf180mcu_fd_sc_mcu7t5v0__dffq_1 D CLK Q VDD VSS
.ends

* Black-box entry subcircuit for gf180mcu_fd_sc_mcu7t5v0__nor2_2 abstract view
.subckt gf180mcu_fd_sc_mcu7t5v0__nor2_2 A1 A2 ZN VDD VSS
.ends

* Black-box entry subcircuit for gf180mcu_fd_sc_mcu7t5v0__clkinv_1 abstract view
.subckt gf180mcu_fd_sc_mcu7t5v0__clkinv_1 I ZN VDD VSS
.ends

* Black-box entry subcircuit for gf180mcu_fd_sc_mcu7t5v0__oai21_1 abstract view
.subckt gf180mcu_fd_sc_mcu7t5v0__oai21_1 A1 A2 B ZN VDD VSS
.ends

* Black-box entry subcircuit for gf180mcu_fd_sc_mcu7t5v0__oai31_1 abstract view
.subckt gf180mcu_fd_sc_mcu7t5v0__oai31_1 A1 A2 A3 B ZN VDD VSS
.ends

* Black-box entry subcircuit for gf180mcu_fd_sc_mcu7t5v0__aoi22_2 abstract view
.subckt gf180mcu_fd_sc_mcu7t5v0__aoi22_2 A1 A2 B1 B2 ZN VDD VSS
.ends

* Black-box entry subcircuit for gf180mcu_fd_sc_mcu7t5v0__mux2_2 abstract view
.subckt gf180mcu_fd_sc_mcu7t5v0__mux2_2 I0 I1 S Z VDD VSS
.ends

* Black-box entry subcircuit for gf180mcu_fd_sc_mcu7t5v0__clkbuf_4 abstract view
.subckt gf180mcu_fd_sc_mcu7t5v0__clkbuf_4 I Z VDD VSS
.ends

* Black-box entry subcircuit for gf180mcu_fd_sc_mcu7t5v0__endcap abstract view
.subckt gf180mcu_fd_sc_mcu7t5v0__endcap VDD VSS
.ends

* Black-box entry subcircuit for gf180mcu_fd_sc_mcu7t5v0__nor4_2 abstract view
.subckt gf180mcu_fd_sc_mcu7t5v0__nor4_2 A1 A2 A3 A4 ZN VDD VSS
.ends

* Black-box entry subcircuit for gf180mcu_fd_sc_mcu7t5v0__and4_1 abstract view
.subckt gf180mcu_fd_sc_mcu7t5v0__and4_1 A1 A2 A3 A4 Z VDD VSS
.ends

* Black-box entry subcircuit for gf180mcu_fd_sc_mcu7t5v0__oai221_4 abstract view
.subckt gf180mcu_fd_sc_mcu7t5v0__oai221_4 A1 A2 B1 B2 C ZN VDD VSS
.ends

* Black-box entry subcircuit for gf180mcu_fd_sc_mcu7t5v0__clkbuf_2 abstract view
.subckt gf180mcu_fd_sc_mcu7t5v0__clkbuf_2 I Z VDD VSS
.ends

* Black-box entry subcircuit for gf180mcu_fd_sc_mcu7t5v0__oai32_1 abstract view
.subckt gf180mcu_fd_sc_mcu7t5v0__oai32_1 A1 A2 A3 B1 B2 ZN VDD VSS
.ends

* Black-box entry subcircuit for gf180mcu_fd_sc_mcu7t5v0__xor2_2 abstract view
.subckt gf180mcu_fd_sc_mcu7t5v0__xor2_2 A1 A2 Z VDD VSS
.ends

* Black-box entry subcircuit for gf180mcu_fd_sc_mcu7t5v0__oai22_1 abstract view
.subckt gf180mcu_fd_sc_mcu7t5v0__oai22_1 A1 A2 B1 B2 ZN VDD VSS
.ends

* Black-box entry subcircuit for gf180mcu_fd_sc_mcu7t5v0__nor3_1 abstract view
.subckt gf180mcu_fd_sc_mcu7t5v0__nor3_1 A1 A2 A3 ZN VDD VSS
.ends

* Black-box entry subcircuit for gf180mcu_fd_sc_mcu7t5v0__clkinv_4 abstract view
.subckt gf180mcu_fd_sc_mcu7t5v0__clkinv_4 I ZN VDD VSS
.ends

* Black-box entry subcircuit for gf180mcu_fd_sc_mcu7t5v0__oai32_2 abstract view
.subckt gf180mcu_fd_sc_mcu7t5v0__oai32_2 A1 A2 A3 B1 B2 ZN VDD VSS
.ends

* Black-box entry subcircuit for gf180mcu_fd_sc_mcu7t5v0__inv_2 abstract view
.subckt gf180mcu_fd_sc_mcu7t5v0__inv_2 I ZN VDD VSS
.ends

* Black-box entry subcircuit for gf180mcu_fd_sc_mcu7t5v0__aoi221_2 abstract view
.subckt gf180mcu_fd_sc_mcu7t5v0__aoi221_2 A1 A2 B1 B2 C ZN VDD VSS
.ends

* Black-box entry subcircuit for gf180mcu_fd_sc_mcu7t5v0__or3_1 abstract view
.subckt gf180mcu_fd_sc_mcu7t5v0__or3_1 A1 A2 A3 Z VDD VSS
.ends

* Black-box entry subcircuit for gf180mcu_fd_sc_mcu7t5v0__and3_2 abstract view
.subckt gf180mcu_fd_sc_mcu7t5v0__and3_2 A1 A2 A3 Z VDD VSS
.ends

* Black-box entry subcircuit for gf180mcu_fd_sc_mcu7t5v0__nor3_4 abstract view
.subckt gf180mcu_fd_sc_mcu7t5v0__nor3_4 A1 A2 A3 ZN VDD VSS
.ends

* Black-box entry subcircuit for gf180mcu_fd_sc_mcu7t5v0__nand3_2 abstract view
.subckt gf180mcu_fd_sc_mcu7t5v0__nand3_2 A1 A2 A3 ZN VDD VSS
.ends

* Black-box entry subcircuit for gf180mcu_fd_sc_mcu7t5v0__oai21_2 abstract view
.subckt gf180mcu_fd_sc_mcu7t5v0__oai21_2 A1 A2 B ZN VDD VSS
.ends

* Black-box entry subcircuit for gf180mcu_fd_sc_mcu7t5v0__aoi222_1 abstract view
.subckt gf180mcu_fd_sc_mcu7t5v0__aoi222_1 A1 A2 B1 B2 C1 C2 ZN VDD VSS
.ends

* Black-box entry subcircuit for gf180mcu_fd_sc_mcu7t5v0__aoi22_4 abstract view
.subckt gf180mcu_fd_sc_mcu7t5v0__aoi22_4 A1 A2 B1 B2 ZN VDD VSS
.ends

* Black-box entry subcircuit for gf180mcu_fd_sc_mcu7t5v0__oai22_2 abstract view
.subckt gf180mcu_fd_sc_mcu7t5v0__oai22_2 A1 A2 B1 B2 ZN VDD VSS
.ends

* Black-box entry subcircuit for gf180mcu_fd_sc_mcu7t5v0__oai31_2 abstract view
.subckt gf180mcu_fd_sc_mcu7t5v0__oai31_2 A1 A2 A3 B ZN VDD VSS
.ends

* Black-box entry subcircuit for gf180mcu_fd_sc_mcu7t5v0__and2_2 abstract view
.subckt gf180mcu_fd_sc_mcu7t5v0__and2_2 A1 A2 Z VDD VSS
.ends

* Black-box entry subcircuit for gf180mcu_fd_sc_mcu7t5v0__nand4_2 abstract view
.subckt gf180mcu_fd_sc_mcu7t5v0__nand4_2 A1 A2 A3 A4 ZN VDD VSS
.ends

* Black-box entry subcircuit for gf180mcu_fd_sc_mcu7t5v0__aoi211_1 abstract view
.subckt gf180mcu_fd_sc_mcu7t5v0__aoi211_1 A1 A2 B C ZN VDD VSS
.ends

* Black-box entry subcircuit for gf180mcu_fd_sc_mcu7t5v0__nor3_2 abstract view
.subckt gf180mcu_fd_sc_mcu7t5v0__nor3_2 A1 A2 A3 ZN VDD VSS
.ends

* Black-box entry subcircuit for gf180mcu_fd_sc_mcu7t5v0__buf_3 abstract view
.subckt gf180mcu_fd_sc_mcu7t5v0__buf_3 I Z VDD VSS
.ends

* Black-box entry subcircuit for gf180mcu_fd_sc_mcu7t5v0__clkbuf_8 abstract view
.subckt gf180mcu_fd_sc_mcu7t5v0__clkbuf_8 I Z VDD VSS
.ends

* Black-box entry subcircuit for gf180mcu_fd_sc_mcu7t5v0__oai221_2 abstract view
.subckt gf180mcu_fd_sc_mcu7t5v0__oai221_2 A1 A2 B1 B2 C ZN VDD VSS
.ends

* Black-box entry subcircuit for gf180mcu_fd_sc_mcu7t5v0__oai31_4 abstract view
.subckt gf180mcu_fd_sc_mcu7t5v0__oai31_4 A1 A2 A3 B ZN VDD VSS
.ends

* Black-box entry subcircuit for gf180mcu_fd_sc_mcu7t5v0__nand4_4 abstract view
.subckt gf180mcu_fd_sc_mcu7t5v0__nand4_4 A1 A2 A3 A4 ZN VDD VSS
.ends

* Black-box entry subcircuit for gf180mcu_fd_sc_mcu7t5v0__nand2_2 abstract view
.subckt gf180mcu_fd_sc_mcu7t5v0__nand2_2 A1 A2 ZN VDD VSS
.ends

* Black-box entry subcircuit for gf180mcu_fd_sc_mcu7t5v0__aoi221_4 abstract view
.subckt gf180mcu_fd_sc_mcu7t5v0__aoi221_4 A1 A2 B1 B2 C ZN VDD VSS
.ends

* Black-box entry subcircuit for gf180mcu_fd_sc_mcu7t5v0__or4_2 abstract view
.subckt gf180mcu_fd_sc_mcu7t5v0__or4_2 A1 A2 A3 A4 Z VDD VSS
.ends

* Black-box entry subcircuit for gf180mcu_fd_sc_mcu7t5v0__aoi211_2 abstract view
.subckt gf180mcu_fd_sc_mcu7t5v0__aoi211_2 A1 A2 B C ZN VDD VSS
.ends

* Black-box entry subcircuit for gf180mcu_fd_sc_mcu7t5v0__oai21_4 abstract view
.subckt gf180mcu_fd_sc_mcu7t5v0__oai21_4 A1 A2 B ZN VDD VSS
.ends

* Black-box entry subcircuit for gf180mcu_fd_sc_mcu7t5v0__oai22_4 abstract view
.subckt gf180mcu_fd_sc_mcu7t5v0__oai22_4 A1 A2 B1 B2 ZN VDD VSS
.ends

* Black-box entry subcircuit for gf180mcu_fd_sc_mcu7t5v0__oai33_1 abstract view
.subckt gf180mcu_fd_sc_mcu7t5v0__oai33_1 A1 A2 A3 B1 B2 B3 ZN VDD VSS
.ends

* Black-box entry subcircuit for gf180mcu_fd_sc_mcu7t5v0__or4_1 abstract view
.subckt gf180mcu_fd_sc_mcu7t5v0__or4_1 A1 A2 A3 A4 Z VDD VSS
.ends

* Black-box entry subcircuit for gf180mcu_fd_sc_mcu7t5v0__nor4_4 abstract view
.subckt gf180mcu_fd_sc_mcu7t5v0__nor4_4 A1 A2 A3 A4 ZN VDD VSS
.ends

* Black-box entry subcircuit for gf180mcu_fd_sc_mcu7t5v0__buf_8 abstract view
.subckt gf180mcu_fd_sc_mcu7t5v0__buf_8 I Z VDD VSS
.ends

* Black-box entry subcircuit for gf180mcu_fd_sc_mcu7t5v0__nand3_4 abstract view
.subckt gf180mcu_fd_sc_mcu7t5v0__nand3_4 A1 A2 A3 ZN VDD VSS
.ends

* Black-box entry subcircuit for gf180mcu_fd_sc_mcu7t5v0__clkinv_8 abstract view
.subckt gf180mcu_fd_sc_mcu7t5v0__clkinv_8 I ZN VDD VSS
.ends

* Black-box entry subcircuit for gf180mcu_fd_sc_mcu7t5v0__aoi21_4 abstract view
.subckt gf180mcu_fd_sc_mcu7t5v0__aoi21_4 A1 A2 B ZN VDD VSS
.ends

* Black-box entry subcircuit for gf180mcu_fd_sc_mcu7t5v0__oai32_4 abstract view
.subckt gf180mcu_fd_sc_mcu7t5v0__oai32_4 A1 A2 A3 B1 B2 ZN VDD VSS
.ends

* Black-box entry subcircuit for gf180mcu_fd_sc_mcu7t5v0__mux4_1 abstract view
.subckt gf180mcu_fd_sc_mcu7t5v0__mux4_1 I0 I1 I2 I3 S0 S1 Z VDD VSS
.ends

* Black-box entry subcircuit for gf180mcu_fd_sc_mcu7t5v0__oai211_2 abstract view
.subckt gf180mcu_fd_sc_mcu7t5v0__oai211_2 A1 A2 B C ZN VDD VSS
.ends

* Black-box entry subcircuit for gf180mcu_fd_sc_mcu7t5v0__oai211_1 abstract view
.subckt gf180mcu_fd_sc_mcu7t5v0__oai211_1 A1 A2 B C ZN VDD VSS
.ends

* Black-box entry subcircuit for gf180mcu_fd_sc_mcu7t5v0__or3_2 abstract view
.subckt gf180mcu_fd_sc_mcu7t5v0__or3_2 A1 A2 A3 Z VDD VSS
.ends

* Black-box entry subcircuit for gf180mcu_fd_sc_mcu7t5v0__and2_4 abstract view
.subckt gf180mcu_fd_sc_mcu7t5v0__and2_4 A1 A2 Z VDD VSS
.ends

* Black-box entry subcircuit for gf180mcu_fd_sc_mcu7t5v0__nor4_1 abstract view
.subckt gf180mcu_fd_sc_mcu7t5v0__nor4_1 A1 A2 A3 A4 ZN VDD VSS
.ends

* Black-box entry subcircuit for gf180mcu_fd_sc_mcu7t5v0__clkinv_2 abstract view
.subckt gf180mcu_fd_sc_mcu7t5v0__clkinv_2 I ZN VDD VSS
.ends

* Black-box entry subcircuit for gf180mcu_fd_sc_mcu7t5v0__xnor3_2 abstract view
.subckt gf180mcu_fd_sc_mcu7t5v0__xnor3_2 A1 A2 A3 ZN VDD VSS
.ends

* Black-box entry subcircuit for gf180mcu_fd_sc_mcu7t5v0__and4_2 abstract view
.subckt gf180mcu_fd_sc_mcu7t5v0__and4_2 A1 A2 A3 A4 Z VDD VSS
.ends

* Black-box entry subcircuit for gf180mcu_fd_sc_mcu7t5v0__aoi211_4 abstract view
.subckt gf180mcu_fd_sc_mcu7t5v0__aoi211_4 A1 A2 B C ZN VDD VSS
.ends

* Black-box entry subcircuit for gf180mcu_fd_sc_mcu7t5v0__tieh abstract view
.subckt gf180mcu_fd_sc_mcu7t5v0__tieh Z VDD VSS
.ends

* Black-box entry subcircuit for gf180mcu_fd_sc_mcu7t5v0__dlya_2 abstract view
.subckt gf180mcu_fd_sc_mcu7t5v0__dlya_2 I Z VDD VSS
.ends

* Black-box entry subcircuit for gf180mcu_fd_sc_mcu7t5v0__or2_4 abstract view
.subckt gf180mcu_fd_sc_mcu7t5v0__or2_4 A1 A2 Z VDD VSS
.ends

* Black-box entry subcircuit for gf180mcu_fd_sc_mcu7t5v0__dlyb_1 abstract view
.subckt gf180mcu_fd_sc_mcu7t5v0__dlyb_1 I Z VDD VSS
.ends

* Black-box entry subcircuit for gf180mcu_fd_sc_mcu7t5v0__clkbuf_16 abstract view
.subckt gf180mcu_fd_sc_mcu7t5v0__clkbuf_16 I Z VDD VSS
.ends

.subckt multiply_komal Clock Enable K[0] K[1] K[2] Result[0] Result[10] Result[11]
+ Result[12] Result[13] Result[14] Result[15] Result[16] Result[1] Result[2] Result[3]
+ Result[4] Result[5] Result[6] Result[7] Result[8] Result[9] X[0] X[1] X[2] X[3]
+ X[4] X[5] X[6] X[7] Z[0] Z[1] done reset vccd1 vssd1
XFILLER_67_520 vccd1 vssd1 gf180mcu_fd_sc_mcu7t5v0__fill_2
XFILLER_100_127 vccd1 vssd1 gf180mcu_fd_sc_mcu7t5v0__fillcap_4
XFILLER_80_1265 vccd1 vssd1 gf180mcu_fd_sc_mcu7t5v0__fill_2
XFILLER_95_862 vccd1 vssd1 gf180mcu_fd_sc_mcu7t5v0__fill_2
XFILLER_55_704 vccd1 vssd1 gf180mcu_fd_sc_mcu7t5v0__fill_2
XFILLER_82_512 vccd1 vssd1 gf180mcu_fd_sc_mcu7t5v0__fill_1
XFILLER_27_428 vccd1 vssd1 gf180mcu_fd_sc_mcu7t5v0__fillcap_64
XANTENNA__7957__A2 _2185_ vccd1 vssd1 gf180mcu_fd_sc_mcu7t5v0__antenna
XFILLER_82_523 vccd1 vssd1 gf180mcu_fd_sc_mcu7t5v0__fillcap_4
XANTENNA__5968__A1 _0998_ vccd1 vssd1 gf180mcu_fd_sc_mcu7t5v0__antenna
X_7963_ _3103_ _3118_ _3132_ _3134_ vccd1 vssd1 gf180mcu_fd_sc_mcu7t5v0__xor3_1
XFILLER_54_225 vccd1 vssd1 gf180mcu_fd_sc_mcu7t5v0__fill_2
XFILLER_82_534 vccd1 vssd1 gf180mcu_fd_sc_mcu7t5v0__fillcap_4
XFILLER_82_545 vccd1 vssd1 gf180mcu_fd_sc_mcu7t5v0__fillcap_8
XFILLER_54_258 vccd1 vssd1 gf180mcu_fd_sc_mcu7t5v0__fill_2
X_6914_ _2035_ _2036_ _2037_ vccd1 vssd1 gf180mcu_fd_sc_mcu7t5v0__xnor2_1
XFILLER_51_910 vccd1 vssd1 gf180mcu_fd_sc_mcu7t5v0__fill_2
X_7894_ _2980_ _2987_ _3058_ vccd1 vssd1 gf180mcu_fd_sc_mcu7t5v0__nor2_1
XANTENNA__8657__CLK clknet_4_6_0_Clock vccd1 vssd1 gf180mcu_fd_sc_mcu7t5v0__antenna
XANTENNA__7709__A2 _1701_ vccd1 vssd1 gf180mcu_fd_sc_mcu7t5v0__antenna
XFILLER_23_634 vccd1 vssd1 gf180mcu_fd_sc_mcu7t5v0__fillcap_4
XFILLER_1_1490 vccd1 vssd1 gf180mcu_fd_sc_mcu7t5v0__fill_1
X_6845_ _1779_ _1971_ vccd1 vssd1 gf180mcu_fd_sc_mcu7t5v0__buf_2
XFILLER_52_1312 vccd1 vssd1 gf180mcu_fd_sc_mcu7t5v0__fill_1
X_6776_ _1838_ _1903_ _1904_ _1905_ vccd1 vssd1 gf180mcu_fd_sc_mcu7t5v0__and3_1
XFILLER_108_1560 vccd1 vssd1 gf180mcu_fd_sc_mcu7t5v0__fillcap_16
XANTENNA__8509__I1 _0112_ vccd1 vssd1 gf180mcu_fd_sc_mcu7t5v0__antenna
X_8515_ _0084_ _3695_ _3711_ vccd1 vssd1 gf180mcu_fd_sc_mcu7t5v0__nand2_1
XFILLER_91_1394 vccd1 vssd1 gf180mcu_fd_sc_mcu7t5v0__fill_2
X_5727_ _0823_ _0899_ vccd1 vssd1 gf180mcu_fd_sc_mcu7t5v0__buf_1
XANTENNA__8134__A2 _1851_ vccd1 vssd1 gf180mcu_fd_sc_mcu7t5v0__antenna
XFILLER_104_1446 vccd1 vssd1 gf180mcu_fd_sc_mcu7t5v0__fill_1
XFILLER_104_1457 vccd1 vssd1 gf180mcu_fd_sc_mcu7t5v0__fill_1
XANTENNA__6145__A1 _1146_ vccd1 vssd1 gf180mcu_fd_sc_mcu7t5v0__antenna
X_8446_ _3633_ _3635_ _3640_ _3591_ _3638_ _3650_ vccd1 vssd1 gf180mcu_fd_sc_mcu7t5v0__oai221_1
X_5658_ _0827_ _0830_ _0831_ vccd1 vssd1 gf180mcu_fd_sc_mcu7t5v0__xor2_1
XFILLER_87_1419 vccd1 vssd1 gf180mcu_fd_sc_mcu7t5v0__fill_1
XANTENNA__7893__A1 _2974_ vccd1 vssd1 gf180mcu_fd_sc_mcu7t5v0__antenna
X_4609_ _3916_ _3931_ vccd1 vssd1 gf180mcu_fd_sc_mcu7t5v0__buf_1
X_8377_ _3546_ _3576_ _3577_ vccd1 vssd1 gf180mcu_fd_sc_mcu7t5v0__xor2_1
XFILLER_102_1170 vccd1 vssd1 gf180mcu_fd_sc_mcu7t5v0__fill_1
XFILLER_123_208 vccd1 vssd1 gf180mcu_fd_sc_mcu7t5v0__fillcap_4
XFILLER_11_1064 vccd1 vssd1 gf180mcu_fd_sc_mcu7t5v0__fill_1
X_5589_ _0199_ _0345_ _0415_ _0386_ _0764_ vccd1 vssd1 gf180mcu_fd_sc_mcu7t5v0__aoi22_1
XFILLER_117_783 vccd1 vssd1 gf180mcu_fd_sc_mcu7t5v0__fill_1
XFILLER_117_794 vccd1 vssd1 gf180mcu_fd_sc_mcu7t5v0__fill_2
XFILLER_2_527 vccd1 vssd1 gf180mcu_fd_sc_mcu7t5v0__fillcap_4
X_7328_ _2387_ _2450_ _2465_ vccd1 vssd1 gf180mcu_fd_sc_mcu7t5v0__nor2_1
XFILLER_89_100 vccd1 vssd1 gf180mcu_fd_sc_mcu7t5v0__fill_1
XFILLER_89_133 vccd1 vssd1 gf180mcu_fd_sc_mcu7t5v0__fill_2
XFILLER_117_66 vccd1 vssd1 gf180mcu_fd_sc_mcu7t5v0__fillcap_4
XANTENNA__6448__A2 _0063_ vccd1 vssd1 gf180mcu_fd_sc_mcu7t5v0__antenna
XFILLER_78_818 vccd1 vssd1 gf180mcu_fd_sc_mcu7t5v0__fill_1
XANTENNA__7645__A1 _0375_ vccd1 vssd1 gf180mcu_fd_sc_mcu7t5v0__antenna
XFILLER_89_144 vccd1 vssd1 gf180mcu_fd_sc_mcu7t5v0__fill_2
X_7259_ _2100_ _2390_ vccd1 vssd1 gf180mcu_fd_sc_mcu7t5v0__buf_1
XFILLER_137_1277 vccd1 vssd1 gf180mcu_fd_sc_mcu7t5v0__fill_1
XFILLER_133_1119 vccd1 vssd1 gf180mcu_fd_sc_mcu7t5v0__fill_2
XFILLER_89_188 vccd1 vssd1 gf180mcu_fd_sc_mcu7t5v0__fill_1
XFILLER_86_851 vccd1 vssd1 gf180mcu_fd_sc_mcu7t5v0__fill_2
XFILLER_115_1564 vccd1 vssd1 gf180mcu_fd_sc_mcu7t5v0__fillcap_16
XFILLER_19_918 vccd1 vssd1 gf180mcu_fd_sc_mcu7t5v0__fillcap_4
XFILLER_58_553 vccd1 vssd1 gf180mcu_fd_sc_mcu7t5v0__fill_2
XFILLER_92_309 vccd1 vssd1 gf180mcu_fd_sc_mcu7t5v0__fillcap_4
XTAP_3202 vccd1 vssd1 gf180mcu_fd_sc_mcu7t5v0__filltie
XTAP_3213 vccd1 vssd1 gf180mcu_fd_sc_mcu7t5v0__filltie
XFILLER_100_672 vccd1 vssd1 gf180mcu_fd_sc_mcu7t5v0__fill_2
XTAP_3224 vccd1 vssd1 gf180mcu_fd_sc_mcu7t5v0__filltie
XFILLER_111_1439 vccd1 vssd1 gf180mcu_fd_sc_mcu7t5v0__fillcap_4
XFILLER_100_683 vccd1 vssd1 gf180mcu_fd_sc_mcu7t5v0__fillcap_4
XTAP_3235 vccd1 vssd1 gf180mcu_fd_sc_mcu7t5v0__filltie
XTAP_2501 vccd1 vssd1 gf180mcu_fd_sc_mcu7t5v0__filltie
XTAP_3246 vccd1 vssd1 gf180mcu_fd_sc_mcu7t5v0__filltie
XTAP_3257 vccd1 vssd1 gf180mcu_fd_sc_mcu7t5v0__filltie
XFILLER_45_247 vccd1 vssd1 gf180mcu_fd_sc_mcu7t5v0__fillcap_4
XTAP_2512 vccd1 vssd1 gf180mcu_fd_sc_mcu7t5v0__filltie
XTAP_3268 vccd1 vssd1 gf180mcu_fd_sc_mcu7t5v0__filltie
XTAP_2523 vccd1 vssd1 gf180mcu_fd_sc_mcu7t5v0__filltie
XTAP_3279 vccd1 vssd1 gf180mcu_fd_sc_mcu7t5v0__filltie
XFILLER_61_707 vccd1 vssd1 gf180mcu_fd_sc_mcu7t5v0__fill_2
XFILLER_73_567 vccd1 vssd1 gf180mcu_fd_sc_mcu7t5v0__fill_1
XTAP_2534 vccd1 vssd1 gf180mcu_fd_sc_mcu7t5v0__filltie
XTAP_1800 vccd1 vssd1 gf180mcu_fd_sc_mcu7t5v0__filltie
XANTENNA__6620__A2 _1755_ vccd1 vssd1 gf180mcu_fd_sc_mcu7t5v0__antenna
XTAP_2545 vccd1 vssd1 gf180mcu_fd_sc_mcu7t5v0__filltie
XFILLER_60_206 vccd1 vssd1 gf180mcu_fd_sc_mcu7t5v0__fill_2
XTAP_1811 vccd1 vssd1 gf180mcu_fd_sc_mcu7t5v0__filltie
XTAP_2556 vccd1 vssd1 gf180mcu_fd_sc_mcu7t5v0__filltie
XFILLER_42_910 vccd1 vssd1 gf180mcu_fd_sc_mcu7t5v0__fill_1
XTAP_1822 vccd1 vssd1 gf180mcu_fd_sc_mcu7t5v0__filltie
XFILLER_109_1302 vccd1 vssd1 gf180mcu_fd_sc_mcu7t5v0__fill_2
XFILLER_42_921 vccd1 vssd1 gf180mcu_fd_sc_mcu7t5v0__fill_2
XTAP_2567 vccd1 vssd1 gf180mcu_fd_sc_mcu7t5v0__filltie
XTAP_1833 vccd1 vssd1 gf180mcu_fd_sc_mcu7t5v0__filltie
XTAP_2578 vccd1 vssd1 gf180mcu_fd_sc_mcu7t5v0__filltie
XFILLER_109_1313 vccd1 vssd1 gf180mcu_fd_sc_mcu7t5v0__fill_2
XTAP_1844 vccd1 vssd1 gf180mcu_fd_sc_mcu7t5v0__filltie
XTAP_2589 vccd1 vssd1 gf180mcu_fd_sc_mcu7t5v0__filltie
XFILLER_144_1204 vccd1 vssd1 gf180mcu_fd_sc_mcu7t5v0__fill_2
XTAP_1855 vccd1 vssd1 gf180mcu_fd_sc_mcu7t5v0__filltie
XTAP_1866 vccd1 vssd1 gf180mcu_fd_sc_mcu7t5v0__filltie
XFILLER_13_144 vccd1 vssd1 gf180mcu_fd_sc_mcu7t5v0__fillcap_64
XTAP_1877 vccd1 vssd1 gf180mcu_fd_sc_mcu7t5v0__filltie
XTAP_1888 vccd1 vssd1 gf180mcu_fd_sc_mcu7t5v0__filltie
XFILLER_70_1412 vccd1 vssd1 gf180mcu_fd_sc_mcu7t5v0__fillcap_4
XTAP_1899 vccd1 vssd1 gf180mcu_fd_sc_mcu7t5v0__filltie
XANTENNA__5187__A2 _0354_ vccd1 vssd1 gf180mcu_fd_sc_mcu7t5v0__antenna
XFILLER_144_1259 vccd1 vssd1 gf180mcu_fd_sc_mcu7t5v0__fill_1
XFILLER_9_137 vccd1 vssd1 gf180mcu_fd_sc_mcu7t5v0__fillcap_4
XFILLER_70_1434 vccd1 vssd1 gf180mcu_fd_sc_mcu7t5v0__fill_1
XANTENNA__4395__B1 _3478_ vccd1 vssd1 gf180mcu_fd_sc_mcu7t5v0__antenna
XFILLER_122_1524 vccd1 vssd1 gf180mcu_fd_sc_mcu7t5v0__fill_2
XFILLER_107_1070 vccd1 vssd1 gf180mcu_fd_sc_mcu7t5v0__fillcap_16
XFILLER_6_811 vccd1 vssd1 gf180mcu_fd_sc_mcu7t5v0__fillcap_4
XFILLER_127_536 vccd1 vssd1 gf180mcu_fd_sc_mcu7t5v0__fill_2
Xrebuffer7 _2189_ net40 vccd1 vssd1 gf180mcu_fd_sc_mcu7t5v0__dlya_1
XFILLER_115_709 vccd1 vssd1 gf180mcu_fd_sc_mcu7t5v0__fill_1
XFILLER_5_354 vccd1 vssd1 gf180mcu_fd_sc_mcu7t5v0__fill_1
XFILLER_9_1419 vccd1 vssd1 gf180mcu_fd_sc_mcu7t5v0__fill_1
XFILLER_122_241 vccd1 vssd1 gf180mcu_fd_sc_mcu7t5v0__fillcap_4
XFILLER_123_797 vccd1 vssd1 gf180mcu_fd_sc_mcu7t5v0__fill_2
XFILLER_111_959 vccd1 vssd1 gf180mcu_fd_sc_mcu7t5v0__fill_2
XFILLER_27_1060 vccd1 vssd1 gf180mcu_fd_sc_mcu7t5v0__fillcap_4
XFILLER_110_447 vccd1 vssd1 gf180mcu_fd_sc_mcu7t5v0__fill_2
XFILLER_42_1525 vccd1 vssd1 gf180mcu_fd_sc_mcu7t5v0__fill_1
XFILLER_67_70 vccd1 vssd1 gf180mcu_fd_sc_mcu7t5v0__fill_1
XFILLER_95_158 vccd1 vssd1 gf180mcu_fd_sc_mcu7t5v0__fillcap_32
XFILLER_67_92 vccd1 vssd1 gf180mcu_fd_sc_mcu7t5v0__fillcap_4
XFILLER_114_1074 vccd1 vssd1 gf180mcu_fd_sc_mcu7t5v0__fill_2
XANTENNA__7939__A2 _3106_ vccd1 vssd1 gf180mcu_fd_sc_mcu7t5v0__antenna
XFILLER_49_586 vccd1 vssd1 gf180mcu_fd_sc_mcu7t5v0__fill_2
XFILLER_49_597 vccd1 vssd1 gf180mcu_fd_sc_mcu7t5v0__fill_2
XFILLER_64_534 vccd1 vssd1 gf180mcu_fd_sc_mcu7t5v0__fillcap_16
XFILLER_97_1036 vccd1 vssd1 gf180mcu_fd_sc_mcu7t5v0__fillcap_4
XFILLER_36_247 vccd1 vssd1 gf180mcu_fd_sc_mcu7t5v0__fill_1
XFILLER_91_353 vccd1 vssd1 gf180mcu_fd_sc_mcu7t5v0__fill_2
X_4960_ _3809_ _4273_ _4274_ vccd1 vssd1 gf180mcu_fd_sc_mcu7t5v0__nand2_1
XFILLER_51_228 vccd1 vssd1 gf180mcu_fd_sc_mcu7t5v0__fillcap_16
X_4891_ _3840_ _4207_ vccd1 vssd1 gf180mcu_fd_sc_mcu7t5v0__clkbuf_1
XFILLER_71_1209 vccd1 vssd1 gf180mcu_fd_sc_mcu7t5v0__fillcap_32
X_6630_ _1756_ _1765_ vccd1 vssd1 gf180mcu_fd_sc_mcu7t5v0__inv_1
XANTENNA__5178__A2 _3078_ vccd1 vssd1 gf180mcu_fd_sc_mcu7t5v0__antenna
XFILLER_34_1031 vccd1 vssd1 gf180mcu_fd_sc_mcu7t5v0__fillcap_64
XFILLER_80_2 vccd1 vssd1 gf180mcu_fd_sc_mcu7t5v0__fillcap_32
XFILLER_73_1091 vccd1 vssd1 gf180mcu_fd_sc_mcu7t5v0__fill_1
X_6561_ _1700_ _1701_ vccd1 vssd1 gf180mcu_fd_sc_mcu7t5v0__buf_1
XANTENNA__4925__A2 _4239_ vccd1 vssd1 gf180mcu_fd_sc_mcu7t5v0__antenna
XFILLER_121_1012 vccd1 vssd1 gf180mcu_fd_sc_mcu7t5v0__fill_2
X_8300_ _1094_ _1931_ _3496_ vccd1 vssd1 gf180mcu_fd_sc_mcu7t5v0__nand2_1
XFILLER_121_1023 vccd1 vssd1 gf180mcu_fd_sc_mcu7t5v0__fill_2
X_5512_ _0686_ _0688_ _0689_ vccd1 vssd1 gf180mcu_fd_sc_mcu7t5v0__or2_1
X_6492_ _1569_ _1577_ _1636_ vccd1 vssd1 gf180mcu_fd_sc_mcu7t5v0__nor2_1
XFILLER_121_1067 vccd1 vssd1 gf180mcu_fd_sc_mcu7t5v0__fill_1
X_8231_ _3421_ _0103_ vccd1 vssd1 gf180mcu_fd_sc_mcu7t5v0__clkbuf_1
X_5443_ _0611_ _0619_ _0620_ vccd1 vssd1 gf180mcu_fd_sc_mcu7t5v0__xor2_1
XFILLER_69_1138 vccd1 vssd1 gf180mcu_fd_sc_mcu7t5v0__fill_1
XFILLER_86_1430 vccd1 vssd1 gf180mcu_fd_sc_mcu7t5v0__fill_2
XFILLER_103_1490 vccd1 vssd1 gf180mcu_fd_sc_mcu7t5v0__fill_1
XFILLER_133_539 vccd1 vssd1 gf180mcu_fd_sc_mcu7t5v0__fill_2
X_8162_ _3257_ _3344_ _3345_ _3346_ vccd1 vssd1 gf180mcu_fd_sc_mcu7t5v0__nand3_1
X_5374_ _0494_ _0495_ _0551_ vccd1 vssd1 gf180mcu_fd_sc_mcu7t5v0__nor2_1
XFILLER_86_1485 vccd1 vssd1 gf180mcu_fd_sc_mcu7t5v0__fillcap_32
X_7113_ _2183_ _2231_ _2232_ _2234_ vccd1 vssd1 gf180mcu_fd_sc_mcu7t5v0__aoi21_2
XFILLER_99_453 vccd1 vssd1 gf180mcu_fd_sc_mcu7t5v0__fillcap_4
X_4325_ _2737_ _2745_ vccd1 vssd1 gf180mcu_fd_sc_mcu7t5v0__clkbuf_1
XFILLER_114_775 vccd1 vssd1 gf180mcu_fd_sc_mcu7t5v0__fillcap_16
X_8093_ _3198_ _3235_ _3272_ vccd1 vssd1 gf180mcu_fd_sc_mcu7t5v0__nor2_1
XFILLER_99_464 vccd1 vssd1 gf180mcu_fd_sc_mcu7t5v0__fillcap_16
XFILLER_82_1349 vccd1 vssd1 gf180mcu_fd_sc_mcu7t5v0__fillcap_4
XFILLER_102_937 vccd1 vssd1 gf180mcu_fd_sc_mcu7t5v0__fill_2
XFILLER_113_274 vccd1 vssd1 gf180mcu_fd_sc_mcu7t5v0__fill_2
XFILLER_101_414 vccd1 vssd1 gf180mcu_fd_sc_mcu7t5v0__fill_2
XFILLER_59_339 vccd1 vssd1 gf180mcu_fd_sc_mcu7t5v0__fill_2
X_7044_ _1838_ _2164_ _2165_ vccd1 vssd1 gf180mcu_fd_sc_mcu7t5v0__nand2_1
XFILLER_87_648 vccd1 vssd1 gf180mcu_fd_sc_mcu7t5v0__fill_2
XFILLER_86_147 vccd1 vssd1 gf180mcu_fd_sc_mcu7t5v0__fill_2
XFILLER_132_1152 vccd1 vssd1 gf180mcu_fd_sc_mcu7t5v0__fillcap_16
XANTENNA__5653__A3 _0414_ vccd1 vssd1 gf180mcu_fd_sc_mcu7t5v0__antenna
XFILLER_41_1057 vccd1 vssd1 gf180mcu_fd_sc_mcu7t5v0__fillcap_8
XANTENNA__8052__A1 _0564_ vccd1 vssd1 gf180mcu_fd_sc_mcu7t5v0__antenna
XANTENNA__8052__B2 _1734_ vccd1 vssd1 gf180mcu_fd_sc_mcu7t5v0__antenna
XFILLER_83_854 vccd1 vssd1 gf180mcu_fd_sc_mcu7t5v0__fillcap_16
XFILLER_83_876 vccd1 vssd1 gf180mcu_fd_sc_mcu7t5v0__fill_2
XFILLER_82_353 vccd1 vssd1 gf180mcu_fd_sc_mcu7t5v0__fill_2
XFILLER_58_1521 vccd1 vssd1 gf180mcu_fd_sc_mcu7t5v0__fillcap_4
X_7946_ _3113_ _3114_ _3115_ vccd1 vssd1 gf180mcu_fd_sc_mcu7t5v0__nand2_1
XFILLER_43_729 vccd1 vssd1 gf180mcu_fd_sc_mcu7t5v0__fillcap_16
XTAP_1107 vccd1 vssd1 gf180mcu_fd_sc_mcu7t5v0__filltie
XFILLER_55_589 vccd1 vssd1 gf180mcu_fd_sc_mcu7t5v0__fill_2
XFILLER_83_898 vccd1 vssd1 gf180mcu_fd_sc_mcu7t5v0__fillcap_16
XTAP_1118 vccd1 vssd1 gf180mcu_fd_sc_mcu7t5v0__filltie
XANTENNA__4613__A1 _3813_ vccd1 vssd1 gf180mcu_fd_sc_mcu7t5v0__antenna
XTAP_1129 vccd1 vssd1 gf180mcu_fd_sc_mcu7t5v0__filltie
XFILLER_70_537 vccd1 vssd1 gf180mcu_fd_sc_mcu7t5v0__fillcap_8
XFILLER_70_548 vccd1 vssd1 gf180mcu_fd_sc_mcu7t5v0__fillcap_8
X_7877_ _2974_ _2977_ _3041_ _3042_ vccd1 vssd1 gf180mcu_fd_sc_mcu7t5v0__xor3_2
XFILLER_58_1576 vccd1 vssd1 gf180mcu_fd_sc_mcu7t5v0__fillcap_4
XANTENNA__8355__A2 _0006_ vccd1 vssd1 gf180mcu_fd_sc_mcu7t5v0__antenna
XFILLER_50_250 vccd1 vssd1 gf180mcu_fd_sc_mcu7t5v0__fill_1
X_6828_ _1951_ _1953_ _1954_ vccd1 vssd1 gf180mcu_fd_sc_mcu7t5v0__xor2_1
X_6759_ _1836_ _1853_ _1888_ vccd1 vssd1 gf180mcu_fd_sc_mcu7t5v0__xnor2_1
XFILLER_17_1273 vccd1 vssd1 gf180mcu_fd_sc_mcu7t5v0__fillcap_4
XFILLER_52_1153 vccd1 vssd1 gf180mcu_fd_sc_mcu7t5v0__fillcap_8
XANTENNA__8107__A2 _1757_ vccd1 vssd1 gf180mcu_fd_sc_mcu7t5v0__antenna
XANTENNA__4403__I _3562_ vccd1 vssd1 gf180mcu_fd_sc_mcu7t5v0__antenna
XFILLER_104_1254 vccd1 vssd1 gf180mcu_fd_sc_mcu7t5v0__fill_2
XFILLER_87_1216 vccd1 vssd1 gf180mcu_fd_sc_mcu7t5v0__fill_2
XFILLER_104_1287 vccd1 vssd1 gf180mcu_fd_sc_mcu7t5v0__fill_2
XANTENNA__7866__A1 _0401_ vccd1 vssd1 gf180mcu_fd_sc_mcu7t5v0__antenna
X_8429_ _3555_ _3561_ _3603_ _3632_ vccd1 vssd1 gf180mcu_fd_sc_mcu7t5v0__nand3_1
XFILLER_124_539 vccd1 vssd1 gf180mcu_fd_sc_mcu7t5v0__fill_2
XFILLER_3_847 vccd1 vssd1 gf180mcu_fd_sc_mcu7t5v0__fillcap_4
XFILLER_117_591 vccd1 vssd1 gf180mcu_fd_sc_mcu7t5v0__fill_2
XFILLER_105_731 vccd1 vssd1 gf180mcu_fd_sc_mcu7t5v0__fill_2
XANTENNA__7618__A1 _2742_ vccd1 vssd1 gf180mcu_fd_sc_mcu7t5v0__antenna
XFILLER_105_764 vccd1 vssd1 gf180mcu_fd_sc_mcu7t5v0__fill_2
XANTENNA__5234__I _0353_ vccd1 vssd1 gf180mcu_fd_sc_mcu7t5v0__antenna
XFILLER_120_712 vccd1 vssd1 gf180mcu_fd_sc_mcu7t5v0__fill_2
XFILLER_77_103 vccd1 vssd1 gf180mcu_fd_sc_mcu7t5v0__fill_1
XFILLER_104_263 vccd1 vssd1 gf180mcu_fd_sc_mcu7t5v0__fill_2
XFILLER_120_723 vccd1 vssd1 gf180mcu_fd_sc_mcu7t5v0__fillcap_4
XFILLER_78_637 vccd1 vssd1 gf180mcu_fd_sc_mcu7t5v0__fillcap_8
XFILLER_132_594 vccd1 vssd1 gf180mcu_fd_sc_mcu7t5v0__fill_2
XFILLER_78_648 vccd1 vssd1 gf180mcu_fd_sc_mcu7t5v0__fillcap_16
XANTENNA__7094__A2 _2213_ vccd1 vssd1 gf180mcu_fd_sc_mcu7t5v0__antenna
XFILLER_144_64 vccd1 vssd1 gf180mcu_fd_sc_mcu7t5v0__fillcap_4
XFILLER_59_851 vccd1 vssd1 gf180mcu_fd_sc_mcu7t5v0__fill_1
XFILLER_24_1244 vccd1 vssd1 gf180mcu_fd_sc_mcu7t5v0__fillcap_64
XFILLER_63_1293 vccd1 vssd1 gf180mcu_fd_sc_mcu7t5v0__fill_2
XANTENNA__6841__A2 _1758_ vccd1 vssd1 gf180mcu_fd_sc_mcu7t5v0__antenna
XFILLER_98_1312 vccd1 vssd1 gf180mcu_fd_sc_mcu7t5v0__fill_1
XANTENNA__4852__A1 _3917_ vccd1 vssd1 gf180mcu_fd_sc_mcu7t5v0__antenna
XTAP_3010 vccd1 vssd1 gf180mcu_fd_sc_mcu7t5v0__filltie
XTAP_3021 vccd1 vssd1 gf180mcu_fd_sc_mcu7t5v0__filltie
XFILLER_46_534 vccd1 vssd1 gf180mcu_fd_sc_mcu7t5v0__fillcap_4
XFILLER_73_320 vccd1 vssd1 gf180mcu_fd_sc_mcu7t5v0__fill_1
XTAP_3032 vccd1 vssd1 gf180mcu_fd_sc_mcu7t5v0__filltie
XFILLER_85_180 vccd1 vssd1 gf180mcu_fd_sc_mcu7t5v0__fill_2
XTAP_3043 vccd1 vssd1 gf180mcu_fd_sc_mcu7t5v0__filltie
XFILLER_41_1580 vccd1 vssd1 gf180mcu_fd_sc_mcu7t5v0__fill_1
XFILLER_37_73 vccd1 vssd1 gf180mcu_fd_sc_mcu7t5v0__fillcap_64