*SPEF "ieee 1481-1999"
*DESIGN "user_project_wrapper"
*DATE "11:11:11 Fri 11 11, 1111"
*VENDOR "OpenRCX"
*PROGRAM "Parallel Extraction"
*VERSION "1.0"
*DESIGN_FLOW "NAME_SCOPE LOCAL" "PIN_CAP NONE"
*DIVIDER /
*DELIMITER :
*BUS_DELIMITER []
*T_UNIT 1 NS
*C_UNIT 1 PF
*R_UNIT 1 OHM
*L_UNIT 1 HENRY

*NAME_MAP
*1 io_in[0]
*2 io_in[10]
*3 io_in[11]
*4 io_in[12]
*5 io_in[13]
*6 io_in[14]
*7 io_in[15]
*8 io_in[16]
*9 io_in[17]
*10 io_in[18]
*11 io_in[19]
*12 io_in[1]
*13 io_in[20]
*14 io_in[21]
*15 io_in[22]
*16 io_in[23]
*17 io_in[24]
*18 io_in[25]
*19 io_in[26]
*20 io_in[27]
*21 io_in[28]
*22 io_in[29]
*23 io_in[2]
*24 io_in[30]
*25 io_in[31]
*26 io_in[32]
*27 io_in[33]
*28 io_in[34]
*29 io_in[35]
*30 io_in[36]
*31 io_in[37]
*32 io_in[3]
*33 io_in[4]
*34 io_in[5]
*35 io_in[6]
*36 io_in[7]
*37 io_in[8]
*38 io_in[9]
*39 io_oeb[0]
*40 io_oeb[10]
*41 io_oeb[11]
*42 io_oeb[12]
*43 io_oeb[13]
*44 io_oeb[14]
*45 io_oeb[15]
*46 io_oeb[16]
*47 io_oeb[17]
*48 io_oeb[18]
*49 io_oeb[19]
*50 io_oeb[1]
*51 io_oeb[20]
*52 io_oeb[21]
*53 io_oeb[22]
*54 io_oeb[23]
*55 io_oeb[24]
*56 io_oeb[25]
*57 io_oeb[26]
*58 io_oeb[27]
*59 io_oeb[28]
*60 io_oeb[29]
*61 io_oeb[2]
*62 io_oeb[30]
*63 io_oeb[31]
*64 io_oeb[32]
*65 io_oeb[33]
*66 io_oeb[34]
*67 io_oeb[35]
*68 io_oeb[36]
*69 io_oeb[37]
*70 io_oeb[3]
*71 io_oeb[4]
*72 io_oeb[5]
*73 io_oeb[6]
*74 io_oeb[7]
*75 io_oeb[8]
*76 io_oeb[9]
*77 io_out[0]
*78 io_out[10]
*79 io_out[11]
*80 io_out[12]
*81 io_out[13]
*82 io_out[14]
*83 io_out[15]
*84 io_out[16]
*85 io_out[17]
*86 io_out[18]
*87 io_out[19]
*88 io_out[1]
*89 io_out[20]
*90 io_out[21]
*91 io_out[22]
*92 io_out[23]
*93 io_out[24]
*94 io_out[25]
*95 io_out[26]
*96 io_out[27]
*97 io_out[28]
*98 io_out[29]
*99 io_out[2]
*100 io_out[30]
*101 io_out[31]
*102 io_out[32]
*103 io_out[33]
*104 io_out[34]
*105 io_out[35]
*106 io_out[36]
*107 io_out[37]
*108 io_out[3]
*109 io_out[4]
*110 io_out[5]
*111 io_out[6]
*112 io_out[7]
*113 io_out[8]
*114 io_out[9]
*115 la_data_in[0]
*116 la_data_in[10]
*117 la_data_in[11]
*118 la_data_in[12]
*119 la_data_in[13]
*120 la_data_in[14]
*121 la_data_in[15]
*122 la_data_in[16]
*123 la_data_in[17]
*124 la_data_in[18]
*125 la_data_in[19]
*126 la_data_in[1]
*127 la_data_in[20]
*128 la_data_in[21]
*129 la_data_in[22]
*130 la_data_in[23]
*131 la_data_in[24]
*132 la_data_in[25]
*133 la_data_in[26]
*134 la_data_in[27]
*135 la_data_in[28]
*136 la_data_in[29]
*137 la_data_in[2]
*138 la_data_in[30]
*139 la_data_in[31]
*140 la_data_in[32]
*141 la_data_in[33]
*142 la_data_in[34]
*143 la_data_in[35]
*144 la_data_in[36]
*145 la_data_in[37]
*146 la_data_in[38]
*147 la_data_in[39]
*148 la_data_in[3]
*149 la_data_in[40]
*150 la_data_in[41]
*151 la_data_in[42]
*152 la_data_in[43]
*153 la_data_in[44]
*154 la_data_in[45]
*155 la_data_in[46]
*156 la_data_in[47]
*157 la_data_in[48]
*158 la_data_in[49]
*159 la_data_in[4]
*160 la_data_in[50]
*161 la_data_in[51]
*162 la_data_in[52]
*163 la_data_in[53]
*164 la_data_in[54]
*165 la_data_in[55]
*166 la_data_in[56]
*167 la_data_in[57]
*168 la_data_in[58]
*169 la_data_in[59]
*170 la_data_in[5]
*171 la_data_in[60]
*172 la_data_in[61]
*173 la_data_in[62]
*174 la_data_in[63]
*175 la_data_in[6]
*176 la_data_in[7]
*177 la_data_in[8]
*178 la_data_in[9]
*179 la_data_out[0]
*180 la_data_out[10]
*181 la_data_out[11]
*182 la_data_out[12]
*183 la_data_out[13]
*184 la_data_out[14]
*185 la_data_out[15]
*186 la_data_out[16]
*187 la_data_out[17]
*188 la_data_out[18]
*189 la_data_out[19]
*190 la_data_out[1]
*191 la_data_out[20]
*192 la_data_out[21]
*193 la_data_out[22]
*194 la_data_out[23]
*195 la_data_out[24]
*196 la_data_out[25]
*197 la_data_out[26]
*198 la_data_out[27]
*199 la_data_out[28]
*200 la_data_out[29]
*201 la_data_out[2]
*202 la_data_out[30]
*203 la_data_out[31]
*204 la_data_out[32]
*205 la_data_out[33]
*206 la_data_out[34]
*207 la_data_out[35]
*208 la_data_out[36]
*209 la_data_out[37]
*210 la_data_out[38]
*211 la_data_out[39]
*212 la_data_out[3]
*213 la_data_out[40]
*214 la_data_out[41]
*215 la_data_out[42]
*216 la_data_out[43]
*217 la_data_out[44]
*218 la_data_out[45]
*219 la_data_out[46]
*220 la_data_out[47]
*221 la_data_out[48]
*222 la_data_out[49]
*223 la_data_out[4]
*224 la_data_out[50]
*225 la_data_out[51]
*226 la_data_out[52]
*227 la_data_out[53]
*228 la_data_out[54]
*229 la_data_out[55]
*230 la_data_out[56]
*231 la_data_out[57]
*232 la_data_out[58]
*233 la_data_out[59]
*234 la_data_out[5]
*235 la_data_out[60]
*236 la_data_out[61]
*237 la_data_out[62]
*238 la_data_out[63]
*239 la_data_out[6]
*240 la_data_out[7]
*241 la_data_out[8]
*242 la_data_out[9]
*243 la_oenb[0]
*244 la_oenb[10]
*245 la_oenb[11]
*246 la_oenb[12]
*247 la_oenb[13]
*248 la_oenb[14]
*249 la_oenb[15]
*250 la_oenb[16]
*251 la_oenb[17]
*252 la_oenb[18]
*253 la_oenb[19]
*254 la_oenb[1]
*255 la_oenb[20]
*256 la_oenb[21]
*257 la_oenb[22]
*258 la_oenb[23]
*259 la_oenb[24]
*260 la_oenb[25]
*261 la_oenb[26]
*262 la_oenb[27]
*263 la_oenb[28]
*264 la_oenb[29]
*265 la_oenb[2]
*266 la_oenb[30]
*267 la_oenb[31]
*268 la_oenb[32]
*269 la_oenb[33]
*270 la_oenb[34]
*271 la_oenb[35]
*272 la_oenb[36]
*273 la_oenb[37]
*274 la_oenb[38]
*275 la_oenb[39]
*276 la_oenb[3]
*277 la_oenb[40]
*278 la_oenb[41]
*279 la_oenb[42]
*280 la_oenb[43]
*281 la_oenb[44]
*282 la_oenb[45]
*283 la_oenb[46]
*284 la_oenb[47]
*285 la_oenb[48]
*286 la_oenb[49]
*287 la_oenb[4]
*288 la_oenb[50]
*289 la_oenb[51]
*290 la_oenb[52]
*291 la_oenb[53]
*292 la_oenb[54]
*293 la_oenb[55]
*294 la_oenb[56]
*295 la_oenb[57]
*296 la_oenb[58]
*297 la_oenb[59]
*298 la_oenb[5]
*299 la_oenb[60]
*300 la_oenb[61]
*301 la_oenb[62]
*302 la_oenb[63]
*303 la_oenb[6]
*304 la_oenb[7]
*305 la_oenb[8]
*306 la_oenb[9]
*307 user_clock2
*308 user_irq[0]
*309 user_irq[1]
*310 user_irq[2]
*313 wb_clk_i
*314 wb_rst_i
*315 wbs_ack_o
*316 wbs_adr_i[0]
*317 wbs_adr_i[10]
*318 wbs_adr_i[11]
*319 wbs_adr_i[12]
*320 wbs_adr_i[13]
*321 wbs_adr_i[14]
*322 wbs_adr_i[15]
*323 wbs_adr_i[16]
*324 wbs_adr_i[17]
*325 wbs_adr_i[18]
*326 wbs_adr_i[19]
*327 wbs_adr_i[1]
*328 wbs_adr_i[20]
*329 wbs_adr_i[21]
*330 wbs_adr_i[22]
*331 wbs_adr_i[23]
*332 wbs_adr_i[24]
*333 wbs_adr_i[25]
*334 wbs_adr_i[26]
*335 wbs_adr_i[27]
*336 wbs_adr_i[28]
*337 wbs_adr_i[29]
*338 wbs_adr_i[2]
*339 wbs_adr_i[30]
*340 wbs_adr_i[31]
*341 wbs_adr_i[3]
*342 wbs_adr_i[4]
*343 wbs_adr_i[5]
*344 wbs_adr_i[6]
*345 wbs_adr_i[7]
*346 wbs_adr_i[8]
*347 wbs_adr_i[9]
*348 wbs_cyc_i
*349 wbs_dat_i[0]
*350 wbs_dat_i[10]
*351 wbs_dat_i[11]
*352 wbs_dat_i[12]
*353 wbs_dat_i[13]
*354 wbs_dat_i[14]
*355 wbs_dat_i[15]
*356 wbs_dat_i[16]
*357 wbs_dat_i[17]
*358 wbs_dat_i[18]
*359 wbs_dat_i[19]
*360 wbs_dat_i[1]
*361 wbs_dat_i[20]
*362 wbs_dat_i[21]
*363 wbs_dat_i[22]
*364 wbs_dat_i[23]
*365 wbs_dat_i[24]
*366 wbs_dat_i[25]
*367 wbs_dat_i[26]
*368 wbs_dat_i[27]
*369 wbs_dat_i[28]
*370 wbs_dat_i[29]
*371 wbs_dat_i[2]
*372 wbs_dat_i[30]
*373 wbs_dat_i[31]
*374 wbs_dat_i[3]
*375 wbs_dat_i[4]
*376 wbs_dat_i[5]
*377 wbs_dat_i[6]
*378 wbs_dat_i[7]
*379 wbs_dat_i[8]
*380 wbs_dat_i[9]
*381 wbs_dat_o[0]
*382 wbs_dat_o[10]
*383 wbs_dat_o[11]
*384 wbs_dat_o[12]
*385 wbs_dat_o[13]
*386 wbs_dat_o[14]
*387 wbs_dat_o[15]
*388 wbs_dat_o[16]
*389 wbs_dat_o[17]
*390 wbs_dat_o[18]
*391 wbs_dat_o[19]
*392 wbs_dat_o[1]
*393 wbs_dat_o[20]
*394 wbs_dat_o[21]
*395 wbs_dat_o[22]
*396 wbs_dat_o[23]
*397 wbs_dat_o[24]
*398 wbs_dat_o[25]
*399 wbs_dat_o[26]
*400 wbs_dat_o[27]
*401 wbs_dat_o[28]
*402 wbs_dat_o[29]
*403 wbs_dat_o[2]
*404 wbs_dat_o[30]
*405 wbs_dat_o[31]
*406 wbs_dat_o[3]
*407 wbs_dat_o[4]
*408 wbs_dat_o[5]
*409 wbs_dat_o[6]
*410 wbs_dat_o[7]
*411 wbs_dat_o[8]
*412 wbs_dat_o[9]
*413 wbs_sel_i[0]
*414 wbs_sel_i[1]
*415 wbs_sel_i[2]
*416 wbs_sel_i[3]
*417 wbs_stb_i
*418 wbs_we_i
*419 mprj

*PORTS
io_in[0] I
io_in[10] I
io_in[11] I
io_in[12] I
io_in[13] I
io_in[14] I
io_in[15] I
io_in[16] I
io_in[17] I
io_in[18] I
io_in[19] I
io_in[1] I
io_in[20] I
io_in[21] I
io_in[22] I
io_in[23] I
io_in[24] I
io_in[25] I
io_in[26] I
io_in[27] I
io_in[28] I
io_in[29] I
io_in[2] I
io_in[30] I
io_in[31] I
io_in[32] I
io_in[33] I
io_in[34] I
io_in[35] I
io_in[36] I
io_in[37] I
io_in[3] I
io_in[4] I
io_in[5] I
io_in[6] I
io_in[7] I
io_in[8] I
io_in[9] I
io_oeb[0] O
io_oeb[10] O
io_oeb[11] O
io_oeb[12] O
io_oeb[13] O
io_oeb[14] O
io_oeb[15] O
io_oeb[16] O
io_oeb[17] O
io_oeb[18] O
io_oeb[19] O
io_oeb[1] O
io_oeb[20] O
io_oeb[21] O
io_oeb[22] O
io_oeb[23] O
io_oeb[24] O
io_oeb[25] O
io_oeb[26] O
io_oeb[27] O
io_oeb[28] O
io_oeb[29] O
io_oeb[2] O
io_oeb[30] O
io_oeb[31] O
io_oeb[32] O
io_oeb[33] O
io_oeb[34] O
io_oeb[35] O
io_oeb[36] O
io_oeb[37] O
io_oeb[3] O
io_oeb[4] O
io_oeb[5] O
io_oeb[6] O
io_oeb[7] O
io_oeb[8] O
io_oeb[9] O
io_out[0] O
io_out[10] O
io_out[11] O
io_out[12] O
io_out[13] O
io_out[14] O
io_out[15] O
io_out[16] O
io_out[17] O
io_out[18] O
io_out[19] O
io_out[1] O
io_out[20] O
io_out[21] O
io_out[22] O
io_out[23] O
io_out[24] O
io_out[25] O
io_out[26] O
io_out[27] O
io_out[28] O
io_out[29] O
io_out[2] O
io_out[30] O
io_out[31] O
io_out[32] O
io_out[33] O
io_out[34] O
io_out[35] O
io_out[36] O
io_out[37] O
io_out[3] O
io_out[4] O
io_out[5] O
io_out[6] O
io_out[7] O
io_out[8] O
io_out[9] O
la_data_in[0] I
la_data_in[10] I
la_data_in[11] I
la_data_in[12] I
la_data_in[13] I
la_data_in[14] I
la_data_in[15] I
la_data_in[16] I
la_data_in[17] I
la_data_in[18] I
la_data_in[19] I
la_data_in[1] I
la_data_in[20] I
la_data_in[21] I
la_data_in[22] I
la_data_in[23] I
la_data_in[24] I
la_data_in[25] I
la_data_in[26] I
la_data_in[27] I
la_data_in[28] I
la_data_in[29] I
la_data_in[2] I
la_data_in[30] I
la_data_in[31] I
la_data_in[32] I
la_data_in[33] I
la_data_in[34] I
la_data_in[35] I
la_data_in[36] I
la_data_in[37] I
la_data_in[38] I
la_data_in[39] I
la_data_in[3] I
la_data_in[40] I
la_data_in[41] I
la_data_in[42] I
la_data_in[43] I
la_data_in[44] I
la_data_in[45] I
la_data_in[46] I
la_data_in[47] I
la_data_in[48] I
la_data_in[49] I
la_data_in[4] I
la_data_in[50] I
la_data_in[51] I
la_data_in[52] I
la_data_in[53] I
la_data_in[54] I
la_data_in[55] I
la_data_in[56] I
la_data_in[57] I
la_data_in[58] I
la_data_in[59] I
la_data_in[5] I
la_data_in[60] I
la_data_in[61] I
la_data_in[62] I
la_data_in[63] I
la_data_in[6] I
la_data_in[7] I
la_data_in[8] I
la_data_in[9] I
la_data_out[0] O
la_data_out[10] O
la_data_out[11] O
la_data_out[12] O
la_data_out[13] O
la_data_out[14] O
la_data_out[15] O
la_data_out[16] O
la_data_out[17] O
la_data_out[18] O
la_data_out[19] O
la_data_out[1] O
la_data_out[20] O
la_data_out[21] O
la_data_out[22] O
la_data_out[23] O
la_data_out[24] O
la_data_out[25] O
la_data_out[26] O
la_data_out[27] O
la_data_out[28] O
la_data_out[29] O
la_data_out[2] O
la_data_out[30] O
la_data_out[31] O
la_data_out[32] O
la_data_out[33] O
la_data_out[34] O
la_data_out[35] O
la_data_out[36] O
la_data_out[37] O
la_data_out[38] O
la_data_out[39] O
la_data_out[3] O
la_data_out[40] O
la_data_out[41] O
la_data_out[42] O
la_data_out[43] O
la_data_out[44] O
la_data_out[45] O
la_data_out[46] O
la_data_out[47] O
la_data_out[48] O
la_data_out[49] O
la_data_out[4] O
la_data_out[50] O
la_data_out[51] O
la_data_out[52] O
la_data_out[53] O
la_data_out[54] O
la_data_out[55] O
la_data_out[56] O
la_data_out[57] O
la_data_out[58] O
la_data_out[59] O
la_data_out[5] O
la_data_out[60] O
la_data_out[61] O
la_data_out[62] O
la_data_out[63] O
la_data_out[6] O
la_data_out[7] O
la_data_out[8] O
la_data_out[9] O
la_oenb[0] I
la_oenb[10] I
la_oenb[11] I
la_oenb[12] I
la_oenb[13] I
la_oenb[14] I
la_oenb[15] I
la_oenb[16] I
la_oenb[17] I
la_oenb[18] I
la_oenb[19] I
la_oenb[1] I
la_oenb[20] I
la_oenb[21] I
la_oenb[22] I
la_oenb[23] I
la_oenb[24] I
la_oenb[25] I
la_oenb[26] I
la_oenb[27] I
la_oenb[28] I
la_oenb[29] I
la_oenb[2] I
la_oenb[30] I
la_oenb[31] I
la_oenb[32] I
la_oenb[33] I
la_oenb[34] I
la_oenb[35] I
la_oenb[36] I
la_oenb[37] I
la_oenb[38] I
la_oenb[39] I
la_oenb[3] I
la_oenb[40] I
la_oenb[41] I
la_oenb[42] I
la_oenb[43] I
la_oenb[44] I
la_oenb[45] I
la_oenb[46] I
la_oenb[47] I
la_oenb[48] I
la_oenb[49] I
la_oenb[4] I
la_oenb[50] I
la_oenb[51] I
la_oenb[52] I
la_oenb[53] I
la_oenb[54] I
la_oenb[55] I
la_oenb[56] I
la_oenb[57] I
la_oenb[58] I
la_oenb[59] I
la_oenb[5] I
la_oenb[60] I
la_oenb[61] I
la_oenb[62] I
la_oenb[63] I
la_oenb[6] I
la_oenb[7] I
la_oenb[8] I
la_oenb[9] I
user_clock2 I
user_irq[0] O
user_irq[1] O
user_irq[2] O
wb_clk_i I
wb_rst_i I
wbs_ack_o O
wbs_adr_i[0] I
wbs_adr_i[10] I
wbs_adr_i[11] I
wbs_adr_i[12] I
wbs_adr_i[13] I
wbs_adr_i[14] I
wbs_adr_i[15] I
wbs_adr_i[16] I
wbs_adr_i[17] I
wbs_adr_i[18] I
wbs_adr_i[19] I
wbs_adr_i[1] I
wbs_adr_i[20] I
wbs_adr_i[21] I
wbs_adr_i[22] I
wbs_adr_i[23] I
wbs_adr_i[24] I
wbs_adr_i[25] I
wbs_adr_i[26] I
wbs_adr_i[27] I
wbs_adr_i[28] I
wbs_adr_i[29] I
wbs_adr_i[2] I
wbs_adr_i[30] I
wbs_adr_i[31] I
wbs_adr_i[3] I
wbs_adr_i[4] I
wbs_adr_i[5] I
wbs_adr_i[6] I
wbs_adr_i[7] I
wbs_adr_i[8] I
wbs_adr_i[9] I
wbs_cyc_i I
wbs_dat_i[0] I
wbs_dat_i[10] I
wbs_dat_i[11] I
wbs_dat_i[12] I
wbs_dat_i[13] I
wbs_dat_i[14] I
wbs_dat_i[15] I
wbs_dat_i[16] I
wbs_dat_i[17] I
wbs_dat_i[18] I
wbs_dat_i[19] I
wbs_dat_i[1] I
wbs_dat_i[20] I
wbs_dat_i[21] I
wbs_dat_i[22] I
wbs_dat_i[23] I
wbs_dat_i[24] I
wbs_dat_i[25] I
wbs_dat_i[26] I
wbs_dat_i[27] I
wbs_dat_i[28] I
wbs_dat_i[29] I
wbs_dat_i[2] I
wbs_dat_i[30] I
wbs_dat_i[31] I
wbs_dat_i[3] I
wbs_dat_i[4] I
wbs_dat_i[5] I
wbs_dat_i[6] I
wbs_dat_i[7] I
wbs_dat_i[8] I
wbs_dat_i[9] I
wbs_dat_o[0] O
wbs_dat_o[10] O
wbs_dat_o[11] O
wbs_dat_o[12] O
wbs_dat_o[13] O
wbs_dat_o[14] O
wbs_dat_o[15] O
wbs_dat_o[16] O
wbs_dat_o[17] O
wbs_dat_o[18] O
wbs_dat_o[19] O
wbs_dat_o[1] O
wbs_dat_o[20] O
wbs_dat_o[21] O
wbs_dat_o[22] O
wbs_dat_o[23] O
wbs_dat_o[24] O
wbs_dat_o[25] O
wbs_dat_o[26] O
wbs_dat_o[27] O
wbs_dat_o[28] O
wbs_dat_o[29] O
wbs_dat_o[2] O
wbs_dat_o[30] O
wbs_dat_o[31] O
wbs_dat_o[3] O
wbs_dat_o[4] O
wbs_dat_o[5] O
wbs_dat_o[6] O
wbs_dat_o[7] O
wbs_dat_o[8] O
wbs_dat_o[9] O
wbs_sel_i[0] I
wbs_sel_i[1] I
wbs_sel_i[2] I
wbs_sel_i[3] I
wbs_stb_i I
wbs_we_i I

*D_NET *1 0.607834
*CONN
*P io_in[0] I
*I *419:io_in[0] I *D user_proj_example
*CAP
1 io_in[0] 0.00336627
2 *419:io_in[0] 0.000405368
3 *1:12 0.0170252
4 *1:11 0.0166199
5 *1:9 0.0224135
6 *1:7 0.0257797
7 *1:12 *32:8 0.0106667
8 *1:12 *34:12 0.152465
9 *1:12 *77:8 0.359092
*RES
1 io_in[0] *1:7 37.305 
2 *1:7 *1:9 249.84 
3 *1:9 *1:11 4.5 
4 *1:11 *1:12 537.75 
5 *1:12 *419:io_in[0] 8.685 
*END

*D_NET *2 0.0682136
*CONN
*P io_in[10] I
*I *419:io_in[10] I *D user_proj_example
*CAP
1 io_in[10] 0.00336627
2 *419:io_in[10] 0.00200976
3 *2:9 0.0243625
4 *2:7 0.025719
5 *419:io_in[10] *78:10 0.000716051
6 *419:io_in[10] *114:8 0.0112318
7 *2:9 *419:io_in[8] 0.000808207
*RES
1 io_in[10] *2:7 37.305 
2 *2:7 *2:9 249.66 
3 *2:9 *419:io_in[10] 38.115 
*END

*D_NET *3 0.0592385
*CONN
*P io_in[11] I
*I *419:io_in[11] I *D user_proj_example
*CAP
1 io_in[11] 0.00305082
2 *419:io_in[11] 0.000915707
3 *3:11 0.0255553
4 *3:10 0.0276905
5 *3:10 *4:8 0.000207143
6 *3:10 *5:8 0.000675133
7 *3:10 *79:10 0.000276191
8 *3:10 *80:14 0.000805557
9 *3:10 *81:7 6.21697e-05
*RES
1 io_in[11] *3:10 46.575 
2 *3:10 *3:11 274.14 
3 *3:11 *419:io_in[11] 10.395 
*END

*D_NET *4 0.135803
*CONN
*P io_in[12] I
*I *419:io_in[12] I *D user_proj_example
*CAP
1 io_in[12] 0.000667593
2 *419:io_in[12] 8.3608e-05
3 *4:11 0.0255448
4 *4:10 0.0254611
5 *4:8 0.00279592
6 *4:7 0.00346351
7 *4:8 *79:10 0.0252254
8 *4:8 *80:14 0.0523535
9 *3:10 *4:8 0.000207143
*RES
1 io_in[12] *4:7 11.925 
2 *4:7 *4:8 79.47 
3 *4:8 *4:10 4.5 
4 *4:10 *4:11 283.23 
5 *4:11 *419:io_in[12] 0.945 
*END

*D_NET *5 0.208071
*CONN
*P io_in[13] I
*I *419:io_in[13] I *D user_proj_example
*CAP
1 io_in[13] 0.000699444
2 *419:io_in[13] 0.000964649
3 *5:11 0.0256693
4 *5:10 0.0247047
5 *5:8 0.00337135
6 *5:7 0.00407079
7 *5:8 *80:14 0.0613143
8 *5:8 *81:10 0.0866011
9 *3:10 *5:8 0.000675133
*RES
1 io_in[13] *5:7 12.285 
2 *5:7 *5:8 132.39 
3 *5:8 *5:10 4.5 
4 *5:10 *5:11 274.68 
5 *5:11 *419:io_in[13] 10.935 
*END

*D_NET *6 0.277084
*CONN
*P io_in[14] I
*I *419:io_in[14] I *D user_proj_example
*CAP
1 io_in[14] 0.000731295
2 *419:io_in[14] 0.000867931
3 *6:11 0.0255229
4 *6:10 0.0246549
5 *6:8 0.00408247
6 *6:7 0.00481377
7 *6:8 *81:10 0.095562
8 *6:8 *82:12 0.120849
*RES
1 io_in[14] *6:7 12.645 
2 *6:7 *6:8 182.61 
3 *6:8 *6:10 4.5 
4 *6:10 *6:11 274.32 
5 *6:11 *419:io_in[14] 9.855 
*END

*D_NET *7 0.24164
*CONN
*P io_in[15] I
*I *419:io_in[15] I *D user_proj_example
*CAP
1 io_in[15] 0.0215308
2 *419:io_in[15] 0.000526608
3 *7:8 0.0158264
4 *7:7 0.0152998
5 *7:5 0.0215308
6 *7:8 *83:8 0.166926
*RES
1 io_in[15] *7:5 216.225 
2 *7:5 *7:7 4.5 
3 *7:7 *7:8 279.45 
4 *7:8 *419:io_in[15] 9.765 
*END

*D_NET *8 0.294618
*CONN
*P io_in[16] I
*I *419:io_in[16] I *D user_proj_example
*CAP
1 io_in[16] 0.000194772
2 *419:io_in[16] 0.000562316
3 *8:16 0.00463219
4 *8:15 0.00406987
5 *8:13 0.0214996
6 *8:11 0.0216943
7 *8:16 *83:8 0.12577
8 *8:16 *84:8 0.116195
*RES
1 io_in[16] *8:11 2.655 
2 *8:11 *8:13 215.91 
3 *8:13 *8:15 4.5 
4 *8:15 *8:16 203.31 
5 *8:16 *419:io_in[16] 10.125 
*END

*D_NET *9 0.192247
*CONN
*P io_in[17] I
*I *419:io_in[17] I *D user_proj_example
*CAP
1 io_in[17] 0.00371559
2 *419:io_in[17] 0.000603851
3 *9:12 0.00327901
4 *9:11 0.00267516
5 *9:9 0.0178073
6 *9:7 0.0215229
7 *9:12 *10:16 0.00213967
8 *9:12 *84:8 0.0750389
9 *9:12 *85:8 0.0654648
*RES
1 io_in[17] *9:7 37.305 
2 *9:7 *9:9 178.92 
3 *9:9 *9:11 4.5 
4 *9:11 *9:12 129.87 
5 *9:12 *419:io_in[17] 10.485 
*END

*D_NET *10 0.066749
*CONN
*P io_in[18] I
*I *419:io_in[18] I *D user_proj_example
*CAP
1 io_in[18] 0.000270652
2 *419:io_in[18] 0.000526608
3 *10:16 0.00357161
4 *10:15 0.003045
5 *10:13 0.0215287
6 *10:11 0.0217993
7 *10:13 *84:7 8.5926e-05
8 *10:16 *84:8 8.70375e-05
9 *10:16 *85:8 0.000825303
10 *10:16 *86:10 0.0128691
11 *9:12 *10:16 0.00213967
*RES
1 io_in[18] *10:11 3.195 
2 *10:11 *10:13 216.27 
3 *10:13 *10:15 4.5 
4 *10:15 *10:16 53.73 
5 *10:16 *419:io_in[18] 9.765 
*END

*D_NET *11 0.0537546
*CONN
*P io_in[19] I
*I *419:io_in[19] I *D user_proj_example
*CAP
1 io_in[19] 0.00014121
2 *419:io_in[19] 0.00200784
3 *11:13 0.0235344
4 *11:11 0.0216677
5 *419:io_in[19] *87:10 0.00640349
*RES
1 io_in[19] *11:11 2.115 
2 *11:11 *11:13 216.27 
3 *11:13 *419:io_in[19] 34.155 
*END

*D_NET *12 0.723833
*CONN
*P io_in[1] I
*I *419:io_in[1] I *D user_proj_example
*CAP
1 io_in[1] 0.000257266
2 *419:io_in[1] 0.000465684
3 *12:16 0.00456993
4 *12:15 0.00410425
5 *12:13 0.0256954
6 *12:11 0.0259526
7 *12:16 *32:8 0.000297908
8 *12:16 *34:12 0.0011521
9 *12:16 *77:8 0.333796
10 *12:16 *88:8 0.324529
11 *12:16 *110:8 0.00301226
*RES
1 io_in[1] *12:11 3.195 
2 *12:11 *12:13 286.11 
3 *12:13 *12:15 4.5 
4 *12:15 *12:16 488.07 
5 *12:16 *419:io_in[1] 9.045 
*END

*D_NET *13 0.0797343
*CONN
*P io_in[20] I
*I *419:io_in[20] I *D user_proj_example
*CAP
1 io_in[20] 0.02156
2 *419:io_in[20] 0.000526608
3 *13:8 0.00576523
4 *13:7 0.00523862
5 *13:5 0.02156
6 *13:8 *14:16 0.000825303
7 *13:8 *15:12 0.0014672
8 *13:8 *87:10 0.0159776
9 *13:8 *89:8 0.000301524
10 *13:8 *90:8 0.00213967
11 *13:8 *91:8 0.0043726
*RES
1 io_in[20] *13:5 216.225 
2 *13:5 *13:7 4.5 
3 *13:7 *13:8 93.33 
4 *13:8 *419:io_in[20] 9.765 
*END

*D_NET *14 0.232533
*CONN
*P io_in[21] I
*I *419:io_in[21] I *D user_proj_example
*CAP
1 io_in[21] 0.000215433
2 *419:io_in[21] 0.000621705
3 *14:16 0.00504092
4 *14:15 0.00441922
5 *14:13 0.021446
6 *14:11 0.0216614
7 *14:16 *89:8 0.0685733
8 *14:16 *90:8 0.10973
9 *13:8 *14:16 0.000825303
*RES
1 io_in[21] *14:11 2.655 
2 *14:11 *14:13 215.37 
3 *14:13 *14:15 4.5 
4 *14:15 *14:16 169.47 
5 *14:16 *419:io_in[21] 10.665 
*END

*D_NET *15 0.335425
*CONN
*P io_in[22] I
*I *419:io_in[22] I *D user_proj_example
*CAP
1 io_in[22] 0.00371559
2 *419:io_in[22] 0.000585997
3 *15:12 0.00555616
4 *15:11 0.00497017
5 *15:9 0.0178252
6 *15:7 0.0215408
7 *15:12 *90:8 0.119304
8 *15:12 *91:8 0.16046
9 *13:8 *15:12 0.0014672
*RES
1 io_in[22] *15:7 37.305 
2 *15:7 *15:9 179.1 
3 *15:9 *15:11 4.5 
4 *15:11 *15:12 242.91 
5 *15:12 *419:io_in[22] 10.305 
*END

*D_NET *16 0.439922
*CONN
*P io_in[23] I
*I *419:io_in[23] I *D user_proj_example
*CAP
1 io_in[23] 0.000270652
2 *419:io_in[23] 0.000544462
3 *16:16 0.00662782
4 *16:15 0.00608336
5 *16:13 0.0215174
6 *16:11 0.0217881
7 *16:16 *91:8 0.170034
8 *16:16 *92:8 0.213056
*RES
1 io_in[23] *16:11 3.195 
2 *16:11 *16:13 216.09 
3 *16:13 *16:15 4.5 
4 *16:15 *16:16 319.05 
5 *16:16 *419:io_in[23] 9.945 
*END

*D_NET *17 0.222562
*CONN
*P io_in[24] I
*I *419:io_in[24] I *D user_proj_example
*CAP
1 io_in[24] 0.000590993
2 *419:io_in[24] 0.0334162
3 *17:10 0.0334162
4 *17:8 0.0127373
5 *17:7 0.0133283
6 *17:8 *93:10 0.129073
*RES
1 io_in[24] *17:7 10.665 
2 *17:7 *17:8 211.95 
3 *17:8 *17:10 4.5 
4 *17:10 *419:io_in[24] 371.025 
*END

*D_NET *18 0.267889
*CONN
*P io_in[25] I
*I *419:io_in[25] I *D user_proj_example
*CAP
1 io_in[25] 0.00065134
2 *419:io_in[25] 0.0333558
3 *18:10 0.0333558
4 *18:8 0.0030863
5 *18:7 0.00373764
6 *18:8 *93:10 0.101822
7 *18:8 *94:10 0.0918794
*RES
1 io_in[25] *18:7 11.025 
2 *18:7 *18:8 157.41 
3 *18:8 *18:10 4.5 
4 *18:10 *419:io_in[25] 370.665 
*END

*D_NET *19 0.192568
*CONN
*P io_in[26] I
*I *419:io_in[26] I *D user_proj_example
*CAP
1 io_in[26] 0.000711686
2 *419:io_in[26] 0.0332955
3 *19:10 0.0332955
4 *19:8 0.00221666
5 *19:7 0.00292835
6 *19:8 io_out[27] 0.000805557
7 *19:8 *94:10 0.0646286
8 *19:8 *95:10 0.0546858
*RES
1 io_in[26] *19:7 11.385 
2 *19:7 *19:8 102.87 
3 *19:8 *19:10 4.5 
4 *19:10 *419:io_in[26] 370.305 
*END

*D_NET *20 0.101608
*CONN
*P io_in[27] I
*I *419:io_in[27] I *D user_proj_example
*CAP
1 io_in[27] 0.000772032
2 *419:io_in[27] 0.0332351
3 *20:10 0.0332351
4 *20:8 0.0029415
5 *20:7 0.00371353
6 *20:8 io_out[27] 0.000276191
7 *20:8 *95:10 0.0274349
*RES
1 io_in[27] *20:7 11.745 
2 *20:7 *20:8 48.33 
3 *20:8 *20:10 4.5 
4 *20:10 *419:io_in[27] 369.945 
*END

*D_NET *21 0.0698541
*CONN
*P io_in[28] I
*I *419:io_in[28] I *D user_proj_example
*CAP
1 io_in[28] 0.000180294
2 *419:io_in[28] 0.00128167
3 *21:13 0.0347468
4 *21:11 0.0336454
5 *419:io_in[28] *97:10 0
*RES
1 io_in[28] *21:11 2.475 
2 *21:11 *21:13 372.15 
3 *21:13 *419:io_in[28] 22.275 
*END

*D_NET *22 0.131272
*CONN
*P io_in[29] I
*I *419:io_in[29] I *D user_proj_example
*CAP
1 io_in[29] 0.000132518
2 *419:io_in[29] 0.000347409
3 *22:16 0.00176526
4 *22:15 0.00141785
5 *22:13 0.0336169
6 *22:11 0.0337494
7 *22:16 *25:12 0.000345239
8 *22:16 *26:16 0.000613757
9 *22:16 *27:16 0.00558519
10 *22:16 *97:10 0.011109
11 *22:16 *98:8 0.0393418
12 *22:16 *100:8 0.000306879
13 *22:16 *101:8 0.000895063
14 *22:16 *102:8 0.00204586
*RES
1 io_in[29] *22:11 1.935 
2 *22:11 *22:13 373.59 
3 *22:13 *22:15 4.5 
4 *22:15 *22:16 62.19 
5 *22:16 *419:io_in[29] 8.145 
*END

*D_NET *23 0.648595
*CONN
*P io_in[2] I
*I *419:io_in[2] I *D user_proj_example
*CAP
1 io_in[2] 0.000125412
2 *419:io_in[2] 0.00052603
3 *23:16 0.00428663
4 *23:15 0.0037606
5 *23:13 0.0256493
6 *23:11 0.0257747
7 *23:16 *34:12 0.000648056
8 *23:16 *88:8 0.297355
9 *23:16 *99:8 0.288088
10 *23:16 *109:8 0.00014916
11 *23:16 *111:8 0.00207949
12 *23:16 *112:8 0.000153526
*RES
1 io_in[2] *23:11 2.115 
2 *23:11 *23:13 285.75 
3 *23:13 *23:15 4.5 
4 *23:15 *23:16 435.69 
5 *23:16 *419:io_in[2] 9.405 
*END

*D_NET *24 0.159413
*CONN
*P io_in[30] I
*I *419:io_in[30] I *D user_proj_example
*CAP
1 io_in[30] 8.47422e-05
2 *419:io_in[30] 0.000407755
3 *24:16 0.00684172
4 *24:15 0.00643396
5 *24:13 0.0335509
6 *24:11 0.0336357
7 *24:16 *28:16 0.000388713
8 *24:16 *98:8 0.0479344
9 *24:16 *105:8 0.0301355
*RES
1 io_in[30] *24:11 1.395 
2 *24:11 *24:13 373.23 
3 *24:13 *24:15 4.5 
4 *24:15 *24:16 116.19 
5 *24:16 *419:io_in[30] 8.505 
*END

*D_NET *25 0.277223
*CONN
*P io_in[31] I
*I *419:io_in[31] I *D user_proj_example
*CAP
1 io_in[31] 0.00123228
2 *419:io_in[31] 0.000267782
3 *25:12 0.00414387
4 *25:11 0.00387608
5 *25:9 0.0325848
6 *25:7 0.0338171
7 *25:12 *100:8 0.0866011
8 *25:12 *101:8 0.112993
9 *25:12 *103:8 0.00136228
10 *22:16 *25:12 0.000345239
*RES
1 io_in[31] *25:7 13.185 
2 *25:7 *25:9 361.62 
3 *25:9 *25:11 4.5 
4 *25:11 *25:12 170.19 
5 *25:12 *419:io_in[31] 7.245 
*END

*D_NET *26 0.35582
*CONN
*P io_in[32] I
*I *419:io_in[32] I *D user_proj_example
*CAP
1 io_in[32] 0.000240014
2 *419:io_in[32] 0.000328128
3 *26:16 0.00489209
4 *26:15 0.00456396
5 *26:13 0.0337249
6 *26:11 0.0339649
7 *26:16 *29:16 0.00224376
8 *26:16 *101:8 0.123427
9 *26:16 *102:8 0.151659
10 *26:16 *106:8 0.000162991
11 *22:16 *26:16 0.000613757
*RES
1 io_in[32] *26:11 3.015 
2 *26:11 *26:13 374.13 
3 *26:13 *26:15 4.5 
4 *26:15 *26:16 226.89 
5 *26:16 *419:io_in[32] 7.605 
*END

*D_NET *27 0.431524
*CONN
*P io_in[33] I
*I *419:io_in[33] I *D user_proj_example
*CAP
1 io_in[33] 0.000180294
2 *419:io_in[33] 0.000388475
3 *27:16 0.00551023
4 *27:15 0.00512176
5 *27:13 0.0336529
6 *27:11 0.0338332
7 *27:16 *28:16 0.182347
8 *27:16 *29:16 0.000162991
9 *27:16 *98:8 0.00120706
10 *27:16 *102:8 0.160252
11 *27:16 *106:8 0.00328231
12 *22:16 *27:16 0.00558519
*RES
1 io_in[33] *27:11 2.475 
2 *27:11 *27:13 373.77 
3 *27:13 *27:15 4.5 
4 *27:15 *27:16 280.89 
5 *27:16 *419:io_in[33] 7.965 
*END

*D_NET *28 0.495689
*CONN
*P io_in[34] I
*I *419:io_in[34] I *D user_proj_example
*CAP
1 io_in[34] 0.000132518
2 *419:io_in[34] 0.000424429
3 *28:16 0.00707238
4 *28:15 0.00664796
5 *28:13 0.0336128
6 *28:11 0.0337453
7 *28:16 *31:16 0.00393941
8 *28:16 *98:8 0.011109
9 *28:16 *105:8 0.216104
10 *28:16 *107:8 0.000165494
11 *24:16 *28:16 0.000388713
12 *27:16 *28:16 0.182347
*RES
1 io_in[34] *28:11 1.935 
2 *28:11 *28:13 373.59 
3 *28:13 *28:15 4.5 
4 *28:15 *28:16 334.89 
5 *28:16 *419:io_in[34] 8.145 
*END

*D_NET *29 0.580348
*CONN
*P io_in[35] I
*I *419:io_in[35] I *D user_proj_example
*CAP
1 io_in[35] 8.47422e-05
2 *419:io_in[35] 0.000344093
3 *29:16 0.0053311
4 *29:15 0.00498701
5 *29:13 0.0336617
6 *29:11 0.0337464
7 *29:16 *30:12 0.261164
8 *29:16 *104:8 0.238623
9 *26:16 *29:16 0.00224376
10 *27:16 *29:16 0.000162991
*RES
1 io_in[35] *29:11 1.395 
2 *29:11 *29:13 374.13 
3 *29:13 *29:15 4.5 
4 *29:15 *29:16 388.89 
5 *29:16 *419:io_in[35] 7.605 
*END

*D_NET *30 0.648751
*CONN
*P io_in[36] I
*I *419:io_in[36] I *D user_proj_example
*CAP
1 io_in[36] 0.00123228
2 *419:io_in[36] 0.000380077
3 *30:12 0.00619085
4 *30:11 0.00581077
5 *30:9 0.0324234
6 *30:7 0.0336557
7 *30:12 *102:8 0.00290087
8 *30:12 *106:8 0.304994
9 *29:16 *30:12 0.261164
*RES
1 io_in[36] *30:7 13.185 
2 *30:7 *30:9 361.08 
3 *30:9 *30:11 4.5 
4 *30:11 *30:12 442.89 
5 *30:12 *419:io_in[36] 7.785 
*END

*D_NET *31 0.743658
*CONN
*P io_in[37] I
*I *419:io_in[37] I *D user_proj_example
*CAP
1 io_in[37] 0.000240014
2 *419:io_in[37] 0.000452047
3 *31:16 0.00590509
4 *31:15 0.00545304
5 *31:13 0.033592
6 *31:11 0.033832
7 *31:16 *105:8 0.000165494
8 *31:16 *106:8 0.315638
9 *31:16 *107:8 0.344441
10 *28:16 *31:16 0.00393941
*RES
1 io_in[37] *31:11 3.015 
2 *31:11 *31:13 373.59 
3 *31:13 *31:15 4.5 
4 *31:15 *31:16 499.59 
5 *31:16 *419:io_in[37] 8.145 
*END

*D_NET *32 0.344696
*CONN
*P io_in[3] I
*I *419:io_in[3] I *D user_proj_example
*CAP
1 io_in[3] 0.025763
2 *419:io_in[3] 0.00046061
3 *32:8 0.0233229
4 *32:7 0.0228623
5 *32:5 0.025763
6 *32:8 *109:8 0.20432
7 *32:8 *113:8 0.0312402
8 *1:12 *32:8 0.0106667
9 *12:16 *32:8 0.000297908
*RES
1 io_in[3] *32:5 286.425 
2 *32:5 *32:7 4.5 
3 *32:7 *32:8 383.31 
4 *32:8 *419:io_in[3] 8.685 
*END

*D_NET *33 0.311369
*CONN
*P io_in[4] I
*I *419:io_in[4] I *D user_proj_example
*CAP
1 io_in[4] 0.000173188
2 *419:io_in[4] 0.000616536
3 *33:16 0.0160394
4 *33:15 0.0154229
5 *33:13 0.0256158
6 *33:11 0.0257889
7 *33:16 *34:12 0
8 *33:16 *37:8 0.00136228
9 *33:16 *108:8 0.22635
*RES
1 io_in[4] *33:11 2.655 
2 *33:11 *33:13 285.21 
3 *33:13 *33:15 4.5 
4 *33:15 *33:16 333.63 
5 *33:16 *419:io_in[4] 9.945 
*END

*D_NET *34 0.238997
*CONN
*P io_in[5] I
*I *419:io_in[5] I *D user_proj_example
*CAP
1 io_in[5] 0.00336627
2 *419:io_in[5] 0.000383618
3 *34:12 0.0151436
4 *34:11 0.01476
5 *34:9 0.0225043
6 *34:7 0.0258706
7 *34:12 *77:8 0.00096008
8 *34:12 *88:8 0.000420036
9 *34:12 *99:8 0.000144013
10 *34:12 *108:8 0
11 *34:12 *113:8 0.00117876
12 *1:12 *34:12 0.152465
13 *12:16 *34:12 0.0011521
14 *23:16 *34:12 0.000648056
15 *33:16 *34:12 0
*RES
1 io_in[5] *34:7 37.305 
2 *34:7 *34:9 250.02 
3 *34:9 *34:11 4.5 
4 *34:11 *34:12 281.25 
5 *34:12 *419:io_in[5] 8.505 
*END

*D_NET *35 0.35923
*CONN
*P io_in[6] I
*I *419:io_in[6] I *D user_proj_example
*CAP
1 io_in[6] 0.000240871
2 *419:io_in[6] 0.000471456
3 *35:16 0.00401384
4 *35:15 0.00354238
5 *35:13 0.0257134
6 *35:11 0.0259542
7 *35:16 *88:8 0.00270134
8 *35:16 *110:8 0.152273
9 *35:16 *111:8 0.14319
10 *35:16 *114:8 0.00112931
*RES
1 io_in[6] *35:11 3.195 
2 *35:11 *35:13 285.93 
3 *35:13 *35:15 4.5 
4 *35:15 *35:16 231.57 
5 *35:16 *419:io_in[6] 9.225 
*END

*D_NET *36 0.285029
*CONN
*P io_in[7] I
*I *419:io_in[7] I *D user_proj_example
*CAP
1 io_in[7] 0.000125412
2 *419:io_in[7] 0.000503307
3 *36:16 0.0035211
4 *36:15 0.00301779
5 *36:13 0.0256556
6 *36:11 0.025781
7 *36:16 *99:8 0.00176857
8 *36:16 *111:8 0.116552
9 *36:16 *112:8 0.107469
10 *36:16 *114:8 0.000635239
*RES
1 io_in[7] *36:11 2.115 
2 *36:11 *36:13 285.57 
3 *36:13 *36:15 4.5 
4 *36:15 *36:16 179.19 
5 *36:16 *419:io_in[7] 9.585 
*END

*D_NET *37 0.150008
*CONN
*P io_in[8] I
*I *419:io_in[8] I *D user_proj_example
*CAP
1 io_in[8] 0.0256224
2 *419:io_in[8] 0.000484042
3 *37:8 0.00788034
4 *37:7 0.0073963
5 *37:5 0.0256224
6 *37:8 *112:8 0.0808318
7 *37:8 *114:8 0
8 *2:9 *419:io_in[8] 0.000808207
9 *33:16 *37:8 0.00136228
*RES
1 io_in[8] *37:5 285.165 
2 *37:5 *37:7 4.5 
3 *37:7 *37:8 126.81 
4 *37:8 *419:io_in[8] 9.945 
*END

*D_NET *38 0.110278
*CONN
*P io_in[9] I
*I *419:io_in[9] I *D user_proj_example
*CAP
1 io_in[9] 0.000166118
2 *419:io_in[9] 0.000349099
3 *38:16 0.00470591
4 *38:15 0.00435681
5 *38:13 0.025911
6 *38:11 0.0260771
7 *38:16 *113:8 0.0468297
8 *38:16 *114:8 0.00188219
*RES
1 io_in[9] *38:11 2.475 
2 *38:11 *38:13 286.83 
3 *38:13 *38:15 4.5 
4 *38:15 *38:16 76.95 
5 *38:16 *419:io_in[9] 8.325 
*END

*D_NET *77 0.759928
*CONN